decoy_warfarin


 24 26  0  0  0  0  0  0  0  0999 V2000
   85.6877  106.2798   17.9655 C   0  0  0  0  0  0  0  0  0  0  0  0
   85.5410  105.1886   17.1914 C   0  0  0  0  0  0  0  0  0  0  0  0
   85.6767  103.9209   17.7257 O   0  0  0  0  0  0  0  0  0  0  0  0
   85.1897  105.2911   15.7730 C   0  0  0  0  0  0  0  0  0  0  0  0
   85.1561  104.2086   14.8832 C   0  0  0  0  0  0  0  0  0  0  0  0
   84.7872  104.3955   13.5451 C   0  0  0  0  0  0  0  0  0  0  0  0
   84.4581  105.6668   13.0769 C   0  0  0  0  0  0  0  0  0  0  0  0
   84.5135  106.7553   13.9416 C   0  0  0  0  0  0  0  0  0  0  0  0
   84.8868  106.5516   15.2702 C   0  0  0  0  0  0  0  0  0  0  0  0
   84.9806  107.6921   16.0817 O   0  0  0  0  0  0  0  0  0  0  0  0
   85.4657  107.6274   17.3806 C   0  0  0  0  0  0  0  0  0  0  0  0
   85.6778  108.6598   18.0075 O   0  0  0  0  0  0  0  0  0  0  0  0
   85.0633  103.3229   17.2663 H   0  0  0  0  0  0  0  0  0  0  0  0
   86.0611  106.1836   19.4446 C   0  0  0  0  0  0  0  0  0  0  0  0
   84.8262  105.9762   20.3234 C   0  0  0  0  0  0  0  0  0  0  0  0
   84.2967  104.7049   20.5935 C   0  0  0  0  0  0  0  0  0  0  0  0
   83.1705  104.5585   21.4068 C   0  0  0  0  0  0  0  0  0  0  0  0
   82.5592  105.6780   21.9651 C   0  0  0  0  0  0  0  0  0  0  0  0
   83.0753  106.9462   21.7144 C   0  0  0  0  0  0  0  0  0  0  0  0
   84.2016  107.0942   20.9031 C   0  0  0  0  0  0  0  0  0  0  0  0
   86.9912  107.3058   19.9458 C   0  0  0  0  0  0  0  0  0  0  0  0
   88.5350  105.4167   20.7988 C   0  0  0  0  0  0  0  0  0  0  0  0
   88.3940  106.7806   20.1757 C   0  0  0  0  0  0  0  0  0  0  0  0
   89.3826  107.4338   19.8390 O   0  0  0  0  0  0  0  0  0  0  0  0
 22 23  1  0  0  0
 23 24  2  0  0  0
 23 21  1  0  0  0
 21 14  1  0  0  0
 14 15  1  0  0  0
 15 16  2  0  0  0
 16 17  1  0  0  0
 17 18  2  0  0  0
 18 19  1  0  0  0
 19 20  2  0  0  0
 14  1  1  0  0  0
  1  2  2  0  0  0
  2  3  1  0  0  0
  2  4  1  0  0  0
  4  5  2  0  0  0
  5  6  1  0  0  0
  6  7  2  0  0  0
  7  8  1  0  0  0
  8  9  2  0  0  0
  9 10  1  0  0  0
 10 11  1  0  0  0
 11 12  2  0  0  0
 20 15  1  0  0  0
 11  1  1  0  0  0
  9  4  1  0  0  0
  3 13  1  0  0  0
M  END
> <minimizedAffinity>
-7.29839

$$$$
decoy_verapamil


 33 34  0  0  0  0  0  0  0  0999 V2000
   84.3123  106.0221   19.8970 C   0  0  0  0  0  0  0  0  0  0  0  0
   84.7846  104.7444   20.6164 C   0  0  0  0  0  0  0  0  0  0  0  0
   84.7616  104.8732   22.1504 C   0  0  0  0  0  0  0  0  0  0  0  0
   85.9793  104.3749   22.8040 N   0  0  0  0  0  0  0  0  0  0  0  0
   85.6962  103.4154   23.8685 C   0  0  0  0  0  0  0  0  0  0  0  0
   86.8563  105.4703   23.2624 C   0  0  0  0  0  0  0  0  0  0  0  0
   87.9352  105.1089   24.3000 C   0  0  0  0  0  0  0  0  0  0  0  0
   91.3818  103.2190   22.4889 C   0  0  0  0  0  0  0  0  0  0  0  0
   90.7489  102.6340   23.5902 C   0  0  0  0  0  0  0  0  0  0  0  0
   89.6351  103.2455   24.1698 C   0  0  0  0  0  0  0  0  0  0  0  0
   89.1307  104.4440   23.6542 C   0  0  0  0  0  0  0  0  0  0  0  0
   89.7644  105.0319   22.5484 C   0  0  0  0  0  0  0  0  0  0  0  0
   90.8849  104.4281   21.9619 C   0  0  0  0  0  0  0  0  0  0  0  0
   92.2789  101.5456   21.0371 C   0  0  0  0  0  0  0  0  0  0  0  0
   92.4800  102.6901   21.8560 O   0  0  0  0  0  0  0  0  0  0  0  0
   91.5624  104.9358   20.8792 O   0  0  0  0  0  0  0  0  0  0  0  0
   91.3878  106.3114   20.5793 C   0  0  0  0  0  0  0  0  0  0  0  0
   85.2681  106.6289   18.8062 C   0  0  0  0  0  0  0  0  0  0  0  0
   85.1526  105.9150   17.4286 C   0  0  0  0  0  0  0  0  0  0  0  0
   85.2775  104.5155   17.3213 C   0  0  0  0  0  0  0  0  0  0  0  0
   85.2146  103.8593   16.0827 C   0  0  0  0  0  0  0  0  0  0  0  0
   85.0537  104.5818   14.9029 C   0  0  0  0  0  0  0  0  0  0  0  0
   84.9789  105.9784   14.9778 C   0  0  0  0  0  0  0  0  0  0  0  0
   85.0209  106.6292   16.2221 C   0  0  0  0  0  0  0  0  0  0  0  0
   84.9831  104.0328   13.6479 O   0  0  0  0  0  0  0  0  0  0  0  0
   84.6555  102.6525   13.5599 C   0  0  0  0  0  0  0  0  0  0  0  0
   84.8148  106.6700   13.8006 O   0  0  0  0  0  0  0  0  0  0  0  0
   83.9315  107.7847   13.8967 C   0  0  0  0  0  0  0  0  0  0  0  0
   85.1310  108.2190   18.7397 C   0  0  0  0  0  0  0  0  0  0  0  0
   84.5945  108.8864   20.0139 C   0  0  0  0  0  0  0  0  0  0  0  0
   86.4327  108.9556   18.3528 C   0  0  0  0  0  0  0  0  0  0  0  0
   86.6688  106.3469   19.2767 C   0  0  0  0  0  0  0  0  0  0  0  0
   87.7500  106.1380   19.6453 N   0  0  0  0  0  0  0  0  0  0  0  0
 14 15  1  0  0  0
 15  8  1  0  0  0
  8  9  2  0  0  0
  9 10  1  0  0  0
 10 11  2  0  0  0
 11  7  1  0  0  0
  7  6  1  0  0  0
  6  4  1  0  0  0
  4  5  1  0  0  0
  4  3  1  0  0  0
  3  2  1  0  0  0
  2  1  1  0  0  0
  1 18  1  0  0  0
 18 32  1  0  0  0
 32 33  3  0  0  0
 18 29  1  0  0  0
 29 30  1  0  0  0
 29 31  1  0  0  0
 18 19  1  0  0  0
 19 20  2  0  0  0
 20 21  1  0  0  0
 21 22  2  0  0  0
 22 25  1  0  0  0
 25 26  1  0  0  0
 22 23  1  0  0  0
 23 27  1  0  0  0
 27 28  1  0  0  0
 23 24  2  0  0  0
 11 12  1  0  0  0
 12 13  2  0  0  0
 13 16  1  0  0  0
 16 17  1  0  0  0
 13  8  1  0  0  0
 24 19  1  0  0  0
M  END
> <minimizedAffinity>
-6.55789

$$$$
decoy_trimethoprim


 25 26  0  0  0  0  0  0  0  0999 V2000
   91.8499  105.5893   23.0274 C   0  0  0  0  0  0  0  0  0  0  0  0
   91.7737  104.1390   22.6515 C   0  0  0  0  0  0  0  0  0  0  0  0
   90.8308  103.3076   23.2240 C   0  0  0  0  0  0  0  0  0  0  0  0
   90.7181  101.9955   22.9507 N   0  0  0  0  0  0  0  0  0  0  0  0
   91.5919  101.5020   22.0736 C   0  0  0  0  0  0  0  0  0  0  0  0
   91.5165  100.1519   21.7930 N   0  0  0  0  0  0  0  0  0  0  0  0
   92.5596  102.2051   21.4792 N   0  0  0  0  0  0  0  0  0  0  0  0
   92.6295  103.5133   21.7640 C   0  0  0  0  0  0  0  0  0  0  0  0
   93.6619  104.1997   21.1202 N   0  0  0  0  0  0  0  0  0  0  0  0
   91.0807   99.6746   22.5704 H   0  0  0  0  0  0  0  0  0  0  0  0
   92.4240   99.8190   21.4982 H   0  0  0  0  0  0  0  0  0  0  0  0
   93.3099  104.9876   20.5863 H   0  0  0  0  0  0  0  0  0  0  0  0
   94.1179  103.5245   20.5075 H   0  0  0  0  0  0  0  0  0  0  0  0
   91.3608  108.5567   20.6859 C   0  0  0  0  0  0  0  0  0  0  0  0
   91.9124  107.7041   21.6414 C   0  0  0  0  0  0  0  0  0  0  0  0
   91.2535  106.5201   21.9958 C   0  0  0  0  0  0  0  0  0  0  0  0
   90.0252  106.2088   21.3829 C   0  0  0  0  0  0  0  0  0  0  0  0
   89.4543  107.0670   20.4361 C   0  0  0  0  0  0  0  0  0  0  0  0
   90.1179  108.2614   20.1137 C   0  0  0  0  0  0  0  0  0  0  0  0
   92.1821  110.5208   21.5759 C   0  0  0  0  0  0  0  0  0  0  0  0
   92.0552  109.7063   20.4098 O   0  0  0  0  0  0  0  0  0  0  0  0
   88.2583  106.8464   19.8030 O   0  0  0  0  0  0  0  0  0  0  0  0
   87.1070  106.7091   20.6256 C   0  0  0  0  0  0  0  0  0  0  0  0
   89.5587  109.1192   19.1960 O   0  0  0  0  0  0  0  0  0  0  0  0
   88.7856  110.1089   19.8763 C   0  0  0  0  0  0  0  0  0  0  0  0
 20 21  1  0  0  0
 21 14  1  0  0  0
 14 15  2  0  0  0
 15 16  1  0  0  0
 16  1  1  0  0  0
  1  2  1  0  0  0
  2  3  2  0  0  0
  3  4  1  0  0  0
  4  5  2  0  0  0
  5  6  1  0  0  0
  5  7  1  0  0  0
  7  8  2  0  0  0
  8  9  1  0  0  0
 16 17  2  0  0  0
 17 18  1  0  0  0
 18 22  1  0  0  0
 22 23  1  0  0  0
 18 19  2  0  0  0
 19 24  1  0  0  0
 24 25  1  0  0  0
 19 14  1  0  0  0
  8  2  1  0  0  0
  6 10  1  0  0  0
  6 11  1  0  0  0
  9 12  1  0  0  0
  9 13  1  0  0  0
M  END
> <minimizedAffinity>
-5.91032

$$$$
decoy_tolbutamide


 20 20  0  0  0  0  0  0  0  0999 V2000
   82.8896  105.8385   20.9822 N   0  0  0  0  0  0  0  0  0  0  0  0
   84.1150  106.2105   20.5097 C   0  0  0  0  0  0  0  0  0  0  0  0
   85.1076  106.3306   21.2073 O   0  0  0  0  0  0  0  0  0  0  0  0
   84.1021  106.4254   19.1441 N   0  0  0  0  0  0  0  0  0  0  0  0
   82.0957  105.9023   20.3657 H   0  0  0  0  0  0  0  0  0  0  0  0
   83.2858  106.2337   18.5820 H   0  0  0  0  0  0  0  0  0  0  0  0
   85.4032  106.9306   18.2444 S   0  0  0  0  0  0  0  0  0  0  0  0
   86.6301  106.5265   18.8931 O   0  0  0  0  0  0  0  0  0  0  0  0
   85.1451  108.3305   17.9670 O   0  0  0  0  0  0  0  0  0  0  0  0
   85.2251  106.0483   16.7158 C   0  0  0  0  0  0  0  0  0  0  0  0
   85.1066  104.6572   16.7273 C   0  0  0  0  0  0  0  0  0  0  0  0
   84.9996  103.9644   15.5203 C   0  0  0  0  0  0  0  0  0  0  0  0
   85.0150  104.6545   14.3005 C   0  0  0  0  0  0  0  0  0  0  0  0
   84.9365  103.9015   13.0048 C   0  0  0  0  0  0  0  0  0  0  0  0
   85.1674  106.0477   14.3021 C   0  0  0  0  0  0  0  0  0  0  0  0
   85.2724  106.7468   15.5061 C   0  0  0  0  0  0  0  0  0  0  0  0
   82.6465  105.6443   22.3964 C   0  0  0  0  0  0  0  0  0  0  0  0
   82.4955  104.1647   22.7434 C   0  0  0  0  0  0  0  0  0  0  0  0
   83.2518  103.4680   25.0434 C   0  0  0  0  0  0  0  0  0  0  0  0
   83.6645  103.6720   23.5946 C   0  0  0  0  0  0  0  0  0  0  0  0
 19 20  1  0  0  0
 20 18  1  0  0  0
 18 17  1  0  0  0
 17  1  1  0  0  0
  1  2  1  0  0  0
  2  3  2  0  0  0
  2  4  1  0  0  0
  4  7  1  0  0  0
  7  8  2  0  0  0
  7  9  2  0  0  0
  7 10  1  0  0  0
 10 11  2  0  0  0
 11 12  1  0  0  0
 12 13  2  0  0  0
 13 14  1  0  0  0
 13 15  1  0  0  0
 15 16  2  0  0  0
 16 10  1  0  0  0
  1  5  1  0  0  0
  4  6  1  0  0  0
M  END
> <minimizedAffinity>
-6.46536

$$$$
decoy_theophylline


 14 15  0  0  0  0  0  0  0  0999 V2000
   92.3579  102.3155   20.5315 C   0  0  0  0  0  0  0  0  0  0  0  0
   92.3383  103.1466   21.7189 N   0  0  0  0  0  0  0  0  0  0  0  0
   93.0637  104.3404   21.6988 C   0  0  0  0  0  0  0  0  0  0  0  0
   93.7242  104.7500   20.7498 O   0  0  0  0  0  0  0  0  0  0  0  0
   92.9635  105.0587   22.9159 C   0  0  0  0  0  0  0  0  0  0  0  0
   93.5125  106.2484   23.2941 N   0  0  0  0  0  0  0  0  0  0  0  0
   93.0927  106.4831   24.5782 C   0  0  0  0  0  0  0  0  0  0  0  0
   92.3167  105.5144   25.0236 N   0  0  0  0  0  0  0  0  0  0  0  0
   92.2416  104.6351   23.9864 C   0  0  0  0  0  0  0  0  0  0  0  0
   91.5432  103.4526   23.9604 N   0  0  0  0  0  0  0  0  0  0  0  0
   90.7826  103.0309   25.1223 C   0  0  0  0  0  0  0  0  0  0  0  0
   91.5752  102.6663   22.8061 C   0  0  0  0  0  0  0  0  0  0  0  0
   90.9660  101.5952   22.7288 O   0  0  0  0  0  0  0  0  0  0  0  0
   94.1123  106.8378   22.7309 H   0  0  0  0  0  0  0  0  0  0  0  0
  1  2  1  0  0  0
  2  3  1  0  0  0
  3  4  2  0  0  0
  3  5  1  0  0  0
  5  6  1  0  0  0
  6  7  1  0  0  0
  7  8  2  0  0  0
  8  9  1  0  0  0
  9 10  1  0  0  0
 10 11  1  0  0  0
 10 12  1  0  0  0
 12 13  2  0  0  0
 12  2  1  0  0  0
  9  5  2  0  0  0
  6 14  1  0  0  0
M  END
> <minimizedAffinity>
-5.00299

$$$$
decoy_sertraline


 21 23  0  0  0  0  0  0  0  0999 V2000
   86.4925  107.3522   21.1631 C   0  0  0  0  0  0  0  0  0  0  0  0
   87.3539  106.9502   19.9519 C   0  0  0  0  0  0  0  0  0  0  0  0
   87.2166  105.4626   19.6497 C   0  0  0  0  0  0  0  0  0  0  0  0
   85.7722  105.0934   19.2740 C   0  0  0  0  0  0  0  0  0  0  0  0
   84.7653  105.6743   20.2557 C   0  0  0  0  0  0  0  0  0  0  0  0
   83.4677  105.1261   20.2916 C   0  0  0  0  0  0  0  0  0  0  0  0
   82.5062  105.6162   21.1726 C   0  0  0  0  0  0  0  0  0  0  0  0
   82.8274  106.6561   22.0358 C   0  0  0  0  0  0  0  0  0  0  0  0
   84.1081  107.2088   22.0121 C   0  0  0  0  0  0  0  0  0  0  0  0
   85.0911  106.7454   21.1152 C   0  0  0  0  0  0  0  0  0  0  0  0
   85.4807  105.4162   17.8078 C   0  0  0  0  0  0  0  0  0  0  0  0
   85.4447  106.7294   17.3143 C   0  0  0  0  0  0  0  0  0  0  0  0
   85.1896  106.9796   15.9628 C   0  0  0  0  0  0  0  0  0  0  0  0
   84.9713  105.9214   15.0786 C   0  0  0  0  0  0  0  0  0  0  0  0
   84.6637  106.3053   13.4226 Cl  0  0  0  0  0  0  0  0  0  0  0  0
   85.0095  104.6070   15.5508 C   0  0  0  0  0  0  0  0  0  0  0  0
   84.7547  103.2434   14.5199 Cl  0  0  0  0  0  0  0  0  0  0  0  0
   85.2642  104.3593   16.9051 C   0  0  0  0  0  0  0  0  0  0  0  0
   86.3475  109.5090   20.0113 C   0  0  0  0  0  0  0  0  0  0  0  0
   86.4198  108.8171   21.2877 N   0  0  0  0  0  0  0  0  0  0  0  0
   85.6221  109.0677   21.8696 H   0  0  0  0  0  0  0  0  0  0  0  0
 19 20  1  0  0  0
 20  1  1  0  0  0
  1  2  1  0  0  0
  2  3  1  0  0  0
  3  4  1  0  0  0
  4 11  1  0  0  0
 11 12  2  0  0  0
 12 13  1  0  0  0
 13 14  2  0  0  0
 14 15  1  0  0  0
 14 16  1  0  0  0
 16 17  1  0  0  0
 16 18  2  0  0  0
  4  5  1  0  0  0
  5  6  2  0  0  0
  6  7  1  0  0  0
  7  8  2  0  0  0
  8  9  1  0  0  0
  9 10  2  0  0  0
 10  1  1  0  0  0
 18 11  1  0  0  0
 10  5  1  0  0  0
 20 21  1  0  0  0
M  END
> <minimizedAffinity>
-6.83650

$$$$
decoy_salbutamol


 21 21  0  0  0  0  0  0  0  0999 V2000
   85.3000  105.7003   16.9749 C   0  0  0  0  0  0  0  0  0  0  0  0
   85.2693  106.9058   16.2627 C   0  0  0  0  0  0  0  0  0  0  0  0
   85.0028  106.9073   14.8955 C   0  0  0  0  0  0  0  0  0  0  0  0
   84.7656  105.7079   14.2250 C   0  0  0  0  0  0  0  0  0  0  0  0
   84.5237  105.8274   12.8845 O   0  0  0  0  0  0  0  0  0  0  0  0
   84.7804  104.4811   14.9038 C   0  0  0  0  0  0  0  0  0  0  0  0
   85.0574  104.5004   16.2845 C   0  0  0  0  0  0  0  0  0  0  0  0
   84.4477  104.9546   12.4739 H   0  0  0  0  0  0  0  0  0  0  0  0
   85.5973  105.6786   18.4644 C   0  0  0  0  0  0  0  0  0  0  0  0
   86.5504  104.6375   18.7032 O   0  0  0  0  0  0  0  0  0  0  0  0
   87.2134  104.7035   17.9945 H   0  0  0  0  0  0  0  0  0  0  0  0
   84.3146  105.4475   19.3031 C   0  0  0  0  0  0  0  0  0  0  0  0
   84.3960  104.5032   20.4370 N   0  0  0  0  0  0  0  0  0  0  0  0
   85.3861  104.2889   20.5645 H   0  0  0  0  0  0  0  0  0  0  0  0
   83.1459  106.2722   21.4984 C   0  0  0  0  0  0  0  0  0  0  0  0
   83.8402  104.9108   21.7430 C   0  0  0  0  0  0  0  0  0  0  0  0
   82.7851  103.9446   22.3036 C   0  0  0  0  0  0  0  0  0  0  0  0
   84.9541  105.1545   22.7732 C   0  0  0  0  0  0  0  0  0  0  0  0
   84.5219  103.1789   14.1879 C   0  0  0  0  0  0  0  0  0  0  0  0
   83.2323  103.1251   13.5919 O   0  0  0  0  0  0  0  0  0  0  0  0
   83.1556  102.2580   13.1600 H   0  0  0  0  0  0  0  0  0  0  0  0
 15 16  1  0  0  0
 16 17  1  0  0  0
 16 18  1  0  0  0
 16 13  1  0  0  0
 13 12  1  0  0  0
 12  9  1  0  0  0
  9 10  1  0  0  0
  9  1  1  0  0  0
  1  2  2  0  0  0
  2  3  1  0  0  0
  3  4  2  0  0  0
  4  5  1  0  0  0
  4  6  1  0  0  0
  6 19  1  0  0  0
 19 20  1  0  0  0
  6  7  2  0  0  0
  7  1  1  0  0  0
 13 14  1  0  0  0
 10 11  1  0  0  0
  5  8  1  0  0  0
 20 21  1  0  0  0
M  END
> <minimizedAffinity>
-6.44590

$$$$
decoy_pyrimethamine


 21 22  0  0  0  0  0  0  0  0999 V2000
   91.2039  103.0276   23.5963 C   0  0  0  0  0  0  0  0  0  0  0  0
   90.9995  101.7919   23.0836 N   0  0  0  0  0  0  0  0  0  0  0  0
   91.7147  101.4385   22.0164 C   0  0  0  0  0  0  0  0  0  0  0  0
   91.4820  100.1875   21.4839 N   0  0  0  0  0  0  0  0  0  0  0  0
   92.6009  102.2171   21.4006 N   0  0  0  0  0  0  0  0  0  0  0  0
   92.8111  103.4304   21.9309 C   0  0  0  0  0  0  0  0  0  0  0  0
   93.7389  104.2163   21.2371 N   0  0  0  0  0  0  0  0  0  0  0  0
   92.1358  103.9127   23.0532 C   0  0  0  0  0  0  0  0  0  0  0  0
   91.7109  100.1906   20.5002 H   0  0  0  0  0  0  0  0  0  0  0  0
   90.5551   99.8798   21.7430 H   0  0  0  0  0  0  0  0  0  0  0  0
   94.1490  103.6352   20.5106 H   0  0  0  0  0  0  0  0  0  0  0  0
   94.4375  104.6113   21.8569 H   0  0  0  0  0  0  0  0  0  0  0  0
   92.3932  105.2493   23.6092 C   0  0  0  0  0  0  0  0  0  0  0  0
   93.3668  105.4396   24.6045 C   0  0  0  0  0  0  0  0  0  0  0  0
   93.6106  106.7106   25.1328 C   0  0  0  0  0  0  0  0  0  0  0  0
   92.8851  107.8045   24.6672 C   0  0  0  0  0  0  0  0  0  0  0  0
   93.1858  109.3685   25.3166 Cl  0  0  0  0  0  0  0  0  0  0  0  0
   91.9200  107.6391   23.6773 C   0  0  0  0  0  0  0  0  0  0  0  0
   91.6768  106.3675   23.1508 C   0  0  0  0  0  0  0  0  0  0  0  0
   90.8463  102.7902   26.1218 C   0  0  0  0  0  0  0  0  0  0  0  0
   90.3772  103.4076   24.8087 C   0  0  0  0  0  0  0  0  0  0  0  0
 20 21  1  0  0  0
 21  1  1  0  0  0
  1  2  2  0  0  0
  2  3  1  0  0  0
  3  4  1  0  0  0
  3  5  2  0  0  0
  5  6  1  0  0  0
  6  7  1  0  0  0
  6  8  2  0  0  0
  8 13  1  0  0  0
 13 14  2  0  0  0
 14 15  1  0  0  0
 15 16  2  0  0  0
 16 17  1  0  0  0
 16 18  1  0  0  0
 18 19  2  0  0  0
  8  1  1  0  0  0
 19 13  1  0  0  0
  4  9  1  0  0  0
  4 10  1  0  0  0
  7 11  1  0  0  0
  7 12  1  0  0  0
M  END
> <minimizedAffinity>
-6.19449

$$$$
decoy_propranolol


 21 22  0  0  0  0  0  0  0  0999 V2000
   85.1904  104.6503   17.9284 O   0  0  0  0  0  0  0  0  0  0  0  0
   85.0825  105.4095   16.7874 C   0  0  0  0  0  0  0  0  0  0  0  0
   85.0078  106.8065   16.7878 C   0  0  0  0  0  0  0  0  0  0  0  0
   84.9107  107.5059   15.5864 C   0  0  0  0  0  0  0  0  0  0  0  0
   84.8927  106.8173   14.3756 C   0  0  0  0  0  0  0  0  0  0  0  0
   84.9752  105.4182   14.3456 C   0  0  0  0  0  0  0  0  0  0  0  0
   84.9612  104.7285   13.1215 C   0  0  0  0  0  0  0  0  0  0  0  0
   85.0430  103.3369   13.0816 C   0  0  0  0  0  0  0  0  0  0  0  0
   85.1396  102.6161   14.2653 C   0  0  0  0  0  0  0  0  0  0  0  0
   85.1548  103.2879   15.4893 C   0  0  0  0  0  0  0  0  0  0  0  0
   85.0741  104.6965   15.5606 C   0  0  0  0  0  0  0  0  0  0  0  0
   86.2196  104.9998   18.8594 C   0  0  0  0  0  0  0  0  0  0  0  0
   85.6386  104.9450   20.2793 C   0  0  0  0  0  0  0  0  0  0  0  0
   86.3217  103.9346   21.0395 O   0  0  0  0  0  0  0  0  0  0  0  0
   86.2082  103.1020   20.5419 H   0  0  0  0  0  0  0  0  0  0  0  0
   84.1222  104.6463   20.2786 C   0  0  0  0  0  0  0  0  0  0  0  0
   83.3124  105.8705   20.2050 N   0  0  0  0  0  0  0  0  0  0  0  0
   82.6454  105.7739   19.4336 H   0  0  0  0  0  0  0  0  0  0  0  0
   83.4300  107.1700   22.3390 C   0  0  0  0  0  0  0  0  0  0  0  0
   82.6234  106.2269   21.4466 C   0  0  0  0  0  0  0  0  0  0  0  0
   82.3249  104.9295   22.2018 C   0  0  0  0  0  0  0  0  0  0  0  0
 19 20  1  0  0  0
 20 21  1  0  0  0
 20 17  1  0  0  0
 17 16  1  0  0  0
 16 13  1  0  0  0
 13 14  1  0  0  0
 13 12  1  0  0  0
 12  1  1  0  0  0
  1  2  1  0  0  0
  2  3  2  0  0  0
  3  4  1  0  0  0
  4  5  2  0  0  0
  5  6  1  0  0  0
  6  7  2  0  0  0
  7  8  1  0  0  0
  8  9  2  0  0  0
  9 10  1  0  0  0
 10 11  2  0  0  0
 11  2  1  0  0  0
 11  6  1  0  0  0
 17 18  1  0  0  0
 14 15  1  0  0  0
M  END
> <minimizedAffinity>
-6.89438

$$$$
decoy_procainamide


 20 20  0  0  0  0  0  0  0  0999 V2000
   84.6413  107.3122   18.2468 N   0  0  0  0  0  0  0  0  0  0  0  0
   85.4176  107.3545   17.1073 C   0  0  0  0  0  0  0  0  0  0  0  0
   86.1967  108.2641   16.8498 O   0  0  0  0  0  0  0  0  0  0  0  0
   83.8701  106.6605   18.2859 H   0  0  0  0  0  0  0  0  0  0  0  0
   85.2433  106.2280   16.1496 C   0  0  0  0  0  0  0  0  0  0  0  0
   85.1759  106.4302   14.7670 C   0  0  0  0  0  0  0  0  0  0  0  0
   85.0116  105.3373   13.9085 C   0  0  0  0  0  0  0  0  0  0  0  0
   84.8644  104.0430   14.4155 C   0  0  0  0  0  0  0  0  0  0  0  0
   84.8245  102.9474   13.5471 N   0  0  0  0  0  0  0  0  0  0  0  0
   84.9768  103.8450   15.7938 C   0  0  0  0  0  0  0  0  0  0  0  0
   85.1376  104.9305   16.6602 C   0  0  0  0  0  0  0  0  0  0  0  0
   84.4195  102.1117   13.9584 H   0  0  0  0  0  0  0  0  0  0  0  0
   84.4296  103.1557   12.6355 H   0  0  0  0  0  0  0  0  0  0  0  0
   84.6434  108.4044   19.2078 C   0  0  0  0  0  0  0  0  0  0  0  0
   84.9903  107.9417   20.6373 C   0  0  0  0  0  0  0  0  0  0  0  0
   85.1696  106.4875   20.7553 N   0  0  0  0  0  0  0  0  0  0  0  0
   87.4600  105.7578   19.8761 C   0  0  0  0  0  0  0  0  0  0  0  0
   86.5260  106.0211   21.0547 C   0  0  0  0  0  0  0  0  0  0  0  0
   84.1127  105.8373   21.5369 C   0  0  0  0  0  0  0  0  0  0  0  0
   83.4628  104.6037   20.9237 C   0  0  0  0  0  0  0  0  0  0  0  0
 17 18  1  0  0  0
 18 16  1  0  0  0
 16 19  1  0  0  0
 19 20  1  0  0  0
 16 15  1  0  0  0
 15 14  1  0  0  0
 14  1  1  0  0  0
  1  2  1  0  0  0
  2  3  2  0  0  0
  2  5  1  0  0  0
  5  6  2  0  0  0
  6  7  1  0  0  0
  7  8  2  0  0  0
  8  9  1  0  0  0
  8 10  1  0  0  0
 10 11  2  0  0  0
 11  5  1  0  0  0
  1  4  1  0  0  0
  9 12  1  0  0  0
  9 13  1  0  0  0
M  END
> <minimizedAffinity>
-5.48827

$$$$
decoy_phenytoin


 21 23  0  0  0  0  0  0  0  0999 V2000
   91.9182  101.4970   19.4840 O   0  0  0  0  0  0  0  0  0  0  0  0
   92.0503  102.4421   20.2405 C   0  0  0  0  0  0  0  0  0  0  0  0
   93.1948  103.1111   20.4829 N   0  0  0  0  0  0  0  0  0  0  0  0
   92.9572  104.1928   21.2754 C   0  0  0  0  0  0  0  0  0  0  0  0
   93.8190  105.0110   21.5742 O   0  0  0  0  0  0  0  0  0  0  0  0
   91.4510  104.2029   21.6910 C   0  0  0  0  0  0  0  0  0  0  0  0
   91.0397  103.0097   20.9656 N   0  0  0  0  0  0  0  0  0  0  0  0
   94.0745  102.9049   20.0433 H   0  0  0  0  0  0  0  0  0  0  0  0
   90.0803  102.7322   20.8206 H   0  0  0  0  0  0  0  0  0  0  0  0
   90.6390  105.3902   21.1525 C   0  0  0  0  0  0  0  0  0  0  0  0
   89.2298  105.3117   21.1327 C   0  0  0  0  0  0  0  0  0  0  0  0
   88.4523  106.3614   20.6395 C   0  0  0  0  0  0  0  0  0  0  0  0
   89.0651  107.5112   20.1530 C   0  0  0  0  0  0  0  0  0  0  0  0
   90.4534  107.6116   20.1613 C   0  0  0  0  0  0  0  0  0  0  0  0
   91.2344  106.5621   20.6550 C   0  0  0  0  0  0  0  0  0  0  0  0
   91.3373  104.0380   23.2134 C   0  0  0  0  0  0  0  0  0  0  0  0
   90.8986  102.8443   23.8155 C   0  0  0  0  0  0  0  0  0  0  0  0
   90.8076  102.7325   25.2056 C   0  0  0  0  0  0  0  0  0  0  0  0
   91.1546  103.8074   26.0192 C   0  0  0  0  0  0  0  0  0  0  0  0
   91.5963  104.9958   25.4458 C   0  0  0  0  0  0  0  0  0  0  0  0
   91.6883  105.1103   24.0573 C   0  0  0  0  0  0  0  0  0  0  0  0
  1  2  2  0  0  0
  2  3  1  0  0  0
  3  4  1  0  0  0
  4  5  2  0  0  0
  4  6  1  0  0  0
  6 10  1  0  0  0
 10 11  2  0  0  0
 11 12  1  0  0  0
 12 13  2  0  0  0
 13 14  1  0  0  0
 14 15  2  0  0  0
  6 16  1  0  0  0
 16 17  2  0  0  0
 17 18  1  0  0  0
 18 19  2  0  0  0
 19 20  1  0  0  0
 20 21  2  0  0  0
  6  7  1  0  0  0
  7  2  1  0  0  0
 15 10  1  0  0  0
 21 16  1  0  0  0
  3  8  1  0  0  0
  7  9  1  0  0  0
M  END
> <minimizedAffinity>
-6.55862

$$$$
decoy_omeprazole


 25 27  0  0  0  0  0  0  0  0999 V2000
   85.9546  107.2432   19.1319 S   0  0  0  0  0  0  0  0  0  0  0  0
   87.0252  108.2596   18.8510 O   0  0  0  0  0  0  0  0  0  0  0  0
   84.5874  104.2981   13.7356 C   0  0  0  0  0  0  0  0  0  0  0  0
   84.6604  105.5860   13.1891 C   0  0  0  0  0  0  0  0  0  0  0  0
   84.9608  106.7012   13.9843 C   0  0  0  0  0  0  0  0  0  0  0  0
   85.1739  106.4673   15.3420 C   0  0  0  0  0  0  0  0  0  0  0  0
   85.4840  107.2967   16.3867 N   0  0  0  0  0  0  0  0  0  0  0  0
   85.5675  106.5359   17.5203 C   0  0  0  0  0  0  0  0  0  0  0  0
   85.3479  105.2627   17.2715 N   0  0  0  0  0  0  0  0  0  0  0  0
   85.1039  105.2031   15.9189 C   0  0  0  0  0  0  0  0  0  0  0  0
   84.8118  104.0990   15.1066 C   0  0  0  0  0  0  0  0  0  0  0  0
   85.6401  108.2951   16.3544 H   0  0  0  0  0  0  0  0  0  0  0  0
   83.9124  102.0160   13.8026 C   0  0  0  0  0  0  0  0  0  0  0  0
   84.3050  103.1502   13.0421 O   0  0  0  0  0  0  0  0  0  0  0  0
   86.7021  105.7463   19.8507 C   0  0  0  0  0  0  0  0  0  0  0  0
   85.8659  105.1838   20.9756 C   0  0  0  0  0  0  0  0  0  0  0  0
   84.5193  105.2464   20.7908 N   0  0  0  0  0  0  0  0  0  0  0  0
   83.7163  104.7837   21.7726 C   0  0  0  0  0  0  0  0  0  0  0  0
   84.1717  104.1973   22.9398 C   0  0  0  0  0  0  0  0  0  0  0  0
   83.1934  103.7372   23.9742 C   0  0  0  0  0  0  0  0  0  0  0  0
   85.5542  104.0318   23.0558 C   0  0  0  0  0  0  0  0  0  0  0  0
   86.4353  104.5573   22.0948 C   0  0  0  0  0  0  0  0  0  0  0  0
   87.9253  104.4590   22.2684 C   0  0  0  0  0  0  0  0  0  0  0  0
   86.0638  103.3972   24.1640 O   0  0  0  0  0  0  0  0  0  0  0  0
   86.2594  104.3440   25.2192 C   0  0  0  0  0  0  0  0  0  0  0  0
 13 14  1  0  0  0
 14  3  1  0  0  0
  3  4  2  0  0  0
  4  5  1  0  0  0
  5  6  2  0  0  0
  6  7  1  0  0  0
  7  8  1  0  0  0
  8  1  1  0  0  0
  1  2  2  0  0  0
  1 15  1  0  0  0
 15 16  1  0  0  0
 16 17  2  0  0  0
 17 18  1  0  0  0
 18 19  2  0  0  0
 19 20  1  0  0  0
 19 21  1  0  0  0
 21 24  1  0  0  0
 24 25  1  0  0  0
 21 22  2  0  0  0
 22 23  1  0  0  0
  8  9  2  0  0  0
  9 10  1  0  0  0
 10 11  2  0  0  0
 11  3  1  0  0  0
 10  6  1  0  0  0
 22 16  1  0  0  0
  7 12  1  0  0  0
M  END
> <minimizedAffinity>
-7.36557

$$$$
decoy_nicotine


 12 13  0  0  0  0  0  0  0  0999 V2000
   92.8163  104.8089   22.0551 C   0  0  0  0  0  0  0  0  0  0  0  0
   92.0528  103.6433   21.6272 N   0  0  0  0  0  0  0  0  0  0  0  0
   92.7127  102.9227   20.5391 C   0  0  0  0  0  0  0  0  0  0  0  0
   91.9284  101.6262   20.5002 C   0  0  0  0  0  0  0  0  0  0  0  0
   91.6330  101.3259   21.9643 C   0  0  0  0  0  0  0  0  0  0  0  0
   91.8582  102.6551   22.7048 C   0  0  0  0  0  0  0  0  0  0  0  0
   90.7160  102.9874   23.6314 C   0  0  0  0  0  0  0  0  0  0  0  0
   90.8258  102.7855   25.0115 C   0  0  0  0  0  0  0  0  0  0  0  0
   89.7479  103.0756   25.8439 C   0  0  0  0  0  0  0  0  0  0  0  0
   88.5839  103.5555   25.2680 C   0  0  0  0  0  0  0  0  0  0  0  0
   88.4319  103.7590   23.9434 N   0  0  0  0  0  0  0  0  0  0  0  0
   89.4984  103.4727   23.1588 C   0  0  0  0  0  0  0  0  0  0  0  0
  1  2  1  0  0  0
  2  3  1  0  0  0
  3  4  1  0  0  0
  4  5  1  0  0  0
  5  6  1  0  0  0
  6  7  1  0  0  0
  7  8  2  0  0  0
  8  9  1  0  0  0
  9 10  2  0  0  0
 10 11  1  0  0  0
 11 12  2  0  0  0
  6  2  1  0  0  0
 12  7  1  0  0  0
M  END
> <minimizedAffinity>
-4.92610

$$$$
decoy_naproxen


 18 19  0  0  0  0  0  0  0  0999 V2000
   85.8629  107.3992   18.8047 C   0  0  0  0  0  0  0  0  0  0  0  0
   85.8262  106.0698   19.2189 C   0  0  0  0  0  0  0  0  0  0  0  0
   85.5302  105.0563   18.3005 C   0  0  0  0  0  0  0  0  0  0  0  0
   85.2660  105.3549   16.9548 C   0  0  0  0  0  0  0  0  0  0  0  0
   84.9671  104.3462   16.0219 C   0  0  0  0  0  0  0  0  0  0  0  0
   84.7027  104.6501   14.6765 C   0  0  0  0  0  0  0  0  0  0  0  0
   84.7457  105.9903   14.2708 C   0  0  0  0  0  0  0  0  0  0  0  0
   85.0414  107.0020   15.1875 C   0  0  0  0  0  0  0  0  0  0  0  0
   85.3027  106.6999   16.5319 C   0  0  0  0  0  0  0  0  0  0  0  0
   85.6016  107.7057   17.4661 C   0  0  0  0  0  0  0  0  0  0  0  0
   86.6360  108.2145   20.9002 C   0  0  0  0  0  0  0  0  0  0  0  0
   86.1377  108.4813   19.5955 O   0  0  0  0  0  0  0  0  0  0  0  0
   84.3836  103.5363   13.6955 C   0  0  0  0  0  0  0  0  0  0  0  0
   85.6480  102.8299   13.2014 C   0  0  0  0  0  0  0  0  0  0  0  0
   83.4125  102.5295   14.2838 C   0  0  0  0  0  0  0  0  0  0  0  0
   82.2205  102.6917   14.4929 O   0  0  0  0  0  0  0  0  0  0  0  0
   83.9955  101.3453   14.5667 O   0  0  0  0  0  0  0  0  0  0  0  0
   83.2562  100.7887   14.8895 H   0  0  0  0  0  0  0  0  0  0  0  0
 11 12  1  0  0  0
 12  1  1  0  0  0
  1  2  2  0  0  0
  2  3  1  0  0  0
  3  4  2  0  0  0
  4  5  1  0  0  0
  5  6  2  0  0  0
  6 13  1  0  0  0
 13 14  1  0  0  0
 13 15  1  0  0  0
 15 16  2  0  0  0
 15 17  1  0  0  0
  6  7  1  0  0  0
  7  8  2  0  0  0
  8  9  1  0  0  0
  9 10  2  0  0  0
 10  1  1  0  0  0
  9  4  1  0  0  0
 17 18  1  0  0  0
M  END
> <minimizedAffinity>
-7.00141

$$$$
decoy_metronidazole


 13 13  0  0  0  0  0  0  0  0999 V2000
   89.3173  103.2241   24.3686 C   0  0  0  0  0  0  0  0  0  0  0  0
   90.0791  103.8250   23.2420 C   0  0  0  0  0  0  0  0  0  0  0  0
   89.8004  104.9861   22.6795 N   0  0  0  0  0  0  0  0  0  0  0  0
   90.7284  105.1598   21.6869 C   0  0  0  0  0  0  0  0  0  0  0  0
   91.5960  104.1000   21.6630 C   0  0  0  0  0  0  0  0  0  0  0  0
   91.1718  103.2270   22.6314 N   0  0  0  0  0  0  0  0  0  0  0  0
   92.7056  103.9083   20.7994 N   0  0  0  0  0  0  0  0  0  0  0  0
   93.6970  104.6254   20.9760 O   0  0  0  0  0  0  0  0  0  0  0  0
   92.5605  103.0785   19.8938 O   0  0  0  0  0  0  0  0  0  0  0  0
   91.6698  101.8938   22.9337 C   0  0  0  0  0  0  0  0  0  0  0  0
   91.0742  100.8349   22.0096 C   0  0  0  0  0  0  0  0  0  0  0  0
   92.0290  100.4410   21.0325 O   0  0  0  0  0  0  0  0  0  0  0  0
   91.6223   99.7474   20.4828 H   0  0  0  0  0  0  0  0  0  0  0  0
  1  2  1  0  0  0
  2  3  2  0  0  0
  3  4  1  0  0  0
  4  5  2  0  0  0
  5  7  1  0  0  0
  7  8  2  0  0  0
  7  9  1  0  0  0
  5  6  1  0  0  0
  6 10  1  0  0  0
 10 11  1  0  0  0
 11 12  1  0  0  0
  6  2  1  0  0  0
 12 13  1  0  0  0
M  CHG 1   7   1
M  CHG 1   9  -1
M  END
> <minimizedAffinity>
-4.49473

$$$$
decoy_metoprolol


 21 21  0  0  0  0  0  0  0  0999 V2000
   86.0908  106.1950   19.8528 O   0  0  0  0  0  0  0  0  0  0  0  0
   85.1353  106.0264   15.7870 C   0  0  0  0  0  0  0  0  0  0  0  0
   85.4107  107.2725   16.3641 C   0  0  0  0  0  0  0  0  0  0  0  0
   85.7344  107.3760   17.7223 C   0  0  0  0  0  0  0  0  0  0  0  0
   85.7902  106.2333   18.5195 C   0  0  0  0  0  0  0  0  0  0  0  0
   85.5165  104.9898   17.9474 C   0  0  0  0  0  0  0  0  0  0  0  0
   85.1929  104.8843   16.5929 C   0  0  0  0  0  0  0  0  0  0  0  0
   84.7915  105.9136   14.3188 C   0  0  0  0  0  0  0  0  0  0  0  0
   84.9840  104.4975   13.7719 C   0  0  0  0  0  0  0  0  0  0  0  0
   83.5598  102.6401   14.0645 C   0  0  0  0  0  0  0  0  0  0  0  0
   83.7126  103.9192   13.4645 O   0  0  0  0  0  0  0  0  0  0  0  0
   87.3962  105.7315   20.2129 C   0  0  0  0  0  0  0  0  0  0  0  0
   87.3034  104.9925   21.5554 C   0  0  0  0  0  0  0  0  0  0  0  0
   86.5141  103.8018   21.3945 O   0  0  0  0  0  0  0  0  0  0  0  0
   86.9082  103.3199   20.6418 H   0  0  0  0  0  0  0  0  0  0  0  0
   88.6942  104.6053   22.1049 C   0  0  0  0  0  0  0  0  0  0  0  0
   88.9315  103.1508   22.0742 N   0  0  0  0  0  0  0  0  0  0  0  0
   88.5433  102.7775   22.9469 H   0  0  0  0  0  0  0  0  0  0  0  0
   90.3484  102.7765   21.9861 C   0  0  0  0  0  0  0  0  0  0  0  0
   91.0335  103.7070   20.9806 C   0  0  0  0  0  0  0  0  0  0  0  0
   91.0406  102.8964   23.3450 C   0  0  0  0  0  0  0  0  0  0  0  0
 10 11  1  0  0  0
 11  9  1  0  0  0
  9  8  1  0  0  0
  8  2  1  0  0  0
  2  3  2  0  0  0
  3  4  1  0  0  0
  4  5  2  0  0  0
  5  1  1  0  0  0
  1 12  1  0  0  0
 12 13  1  0  0  0
 13 14  1  0  0  0
 13 16  1  0  0  0
 16 17  1  0  0  0
 17 19  1  0  0  0
 19 20  1  0  0  0
 19 21  1  0  0  0
  5  6  1  0  0  0
  6  7  2  0  0  0
  7  2  1  0  0  0
 14 15  1  0  0  0
 17 18  1  0  0  0
M  END
> <minimizedAffinity>
-6.02435

$$$$
decoy_loratadine


 27 30  0  0  0  0  0  0  0  0999 V2000
   84.7983  105.6702   16.0762 C   0  0  0  0  0  0  0  0  0  0  0  0
   84.5147  104.5244   15.7472 O   0  0  0  0  0  0  0  0  0  0  0  0
   85.3307  106.0156   17.3022 N   0  0  0  0  0  0  0  0  0  0  0  0
   85.6349  104.9801   18.2803 C   0  0  0  0  0  0  0  0  0  0  0  0
   86.9175  105.2898   19.0622 C   0  0  0  0  0  0  0  0  0  0  0  0
   86.8918  106.6532   19.7501 C   0  0  0  0  0  0  0  0  0  0  0  0
   87.7630  107.0157   20.7341 C   0  0  0  0  0  0  0  0  0  0  0  0
   88.8459  106.0847   21.1345 C   0  0  0  0  0  0  0  0  0  0  0  0
   88.5863  104.9606   21.9292 C   0  0  0  0  0  0  0  0  0  0  0  0
   89.6263  104.1062   22.2980 C   0  0  0  0  0  0  0  0  0  0  0  0
   90.9277  104.3845   21.8856 C   0  0  0  0  0  0  0  0  0  0  0  0
   92.2104  103.3319   22.3421 Cl  0  0  0  0  0  0  0  0  0  0  0  0
   91.2034  105.5167   21.1184 C   0  0  0  0  0  0  0  0  0  0  0  0
   90.1643  106.3808   20.7456 C   0  0  0  0  0  0  0  0  0  0  0  0
   90.4437  107.6485   19.9762 C   0  0  0  0  0  0  0  0  0  0  0  0
   90.2284  108.9001   20.8379 C   0  0  0  0  0  0  0  0  0  0  0  0
   88.8454  109.2206   21.3700 C   0  0  0  0  0  0  0  0  0  0  0  0
   88.6807  110.4701   21.9944 C   0  0  0  0  0  0  0  0  0  0  0  0
   87.4563  110.8342   22.5419 C   0  0  0  0  0  0  0  0  0  0  0  0
   86.4163  109.9323   22.4583 C   0  0  0  0  0  0  0  0  0  0  0  0
   86.5230  108.7234   21.8723 N   0  0  0  0  0  0  0  0  0  0  0  0
   87.7245  108.3786   21.3320 C   0  0  0  0  0  0  0  0  0  0  0  0
   85.8302  107.5890   19.1776 C   0  0  0  0  0  0  0  0  0  0  0  0
   85.6283  107.3968   17.6698 C   0  0  0  0  0  0  0  0  0  0  0  0
   84.6296  106.7514   15.2656 O   0  0  0  0  0  0  0  0  0  0  0  0
   85.8376  106.1648   13.2913 C   0  0  0  0  0  0  0  0  0  0  0  0
   84.4657  106.4313   13.8798 C   0  0  0  0  0  0  0  0  0  0  0  0
 26 27  1  0  0  0
 27 25  1  0  0  0
 25  1  1  0  0  0
  1  2  2  0  0  0
  1  3  1  0  0  0
  3  4  1  0  0  0
  4  5  1  0  0  0
  5  6  1  0  0  0
  6  7  2  0  0  0
  7  8  1  0  0  0
  8  9  2  0  0  0
  9 10  1  0  0  0
 10 11  2  0  0  0
 11 12  1  0  0  0
 11 13  1  0  0  0
 13 14  2  0  0  0
 14 15  1  0  0  0
 15 16  1  0  0  0
 16 17  1  0  0  0
 17 18  2  0  0  0
 18 19  1  0  0  0
 19 20  2  0  0  0
 20 21  1  0  0  0
 21 22  2  0  0  0
  6 23  1  0  0  0
 23 24  1  0  0  0
 24  3  1  0  0  0
 22  7  1  0  0  0
 14  8  1  0  0  0
 22 17  1  0  0  0
M  END
> <minimizedAffinity>
-7.45970

$$$$
decoy_lidocaine


 18 18  0  0  0  0  0  0  0  0999 V2000
   88.3261  104.2682   22.4733 C   0  0  0  0  0  0  0  0  0  0  0  0
   88.7012  104.7601   23.5319 O   0  0  0  0  0  0  0  0  0  0  0  0
   89.0971  103.9810   21.3580 N   0  0  0  0  0  0  0  0  0  0  0  0
   88.6448  103.2743   20.7833 H   0  0  0  0  0  0  0  0  0  0  0  0
   90.4903  104.1606   21.2058 C   0  0  0  0  0  0  0  0  0  0  0  0
   91.3014  102.9978   21.2467 C   0  0  0  0  0  0  0  0  0  0  0  0
   90.7262  101.6209   21.4579 C   0  0  0  0  0  0  0  0  0  0  0  0
   92.6967  103.1144   21.1318 C   0  0  0  0  0  0  0  0  0  0  0  0
   93.2926  104.3574   20.9647 C   0  0  0  0  0  0  0  0  0  0  0  0
   92.4976  105.4944   20.8779 C   0  0  0  0  0  0  0  0  0  0  0  0
   91.0939  105.4132   20.9629 C   0  0  0  0  0  0  0  0  0  0  0  0
   90.3378  106.6941   20.7334 C   0  0  0  0  0  0  0  0  0  0  0  0
   86.8519  103.8981   22.2485 C   0  0  0  0  0  0  0  0  0  0  0  0
   86.0859  105.0606   21.7136 N   0  0  0  0  0  0  0  0  0  0  0  0
   86.5674  105.5839   19.3074 C   0  0  0  0  0  0  0  0  0  0  0  0
   85.7090  104.8152   20.3066 C   0  0  0  0  0  0  0  0  0  0  0  0
   84.9438  105.3776   22.5898 C   0  0  0  0  0  0  0  0  0  0  0  0
   83.6569  104.5937   22.3477 C   0  0  0  0  0  0  0  0  0  0  0  0
 15 16  1  0  0  0
 16 14  1  0  0  0
 14 17  1  0  0  0
 17 18  1  0  0  0
 14 13  1  0  0  0
 13  1  1  0  0  0
  1  2  2  0  0  0
  1  3  1  0  0  0
  3  5  1  0  0  0
  5  6  2  0  0  0
  6  7  1  0  0  0
  6  8  1  0  0  0
  8  9  2  0  0  0
  9 10  1  0  0  0
 10 11  2  0  0  0
 11 12  1  0  0  0
 11  5  1  0  0  0
  3  4  1  0  0  0
M  END
> <minimizedAffinity>
-5.19332

$$$$
decoy_ketoprofen


 20 21  0  0  0  0  0  0  0  0999 V2000
   84.9904  104.4597   14.8722 C   0  0  0  0  0  0  0  0  0  0  0  0
   84.9588  105.6277   14.0943 C   0  0  0  0  0  0  0  0  0  0  0  0
   84.9644  106.8888   14.6945 C   0  0  0  0  0  0  0  0  0  0  0  0
   85.0146  107.0049   16.0831 C   0  0  0  0  0  0  0  0  0  0  0  0
   85.0715  105.8537   16.8743 C   0  0  0  0  0  0  0  0  0  0  0  0
   85.0421  104.5890   16.2702 C   0  0  0  0  0  0  0  0  0  0  0  0
   85.5218  103.0983   12.8148 C   0  0  0  0  0  0  0  0  0  0  0  0
   84.9743  103.0740   14.2422 C   0  0  0  0  0  0  0  0  0  0  0  0
   83.6011  102.4225   14.2467 C   0  0  0  0  0  0  0  0  0  0  0  0
   82.5763  102.8189   13.7168 O   0  0  0  0  0  0  0  0  0  0  0  0
   83.5984  101.2427   14.9063 O   0  0  0  0  0  0  0  0  0  0  0  0
   82.6692  100.9376   14.8349 H   0  0  0  0  0  0  0  0  0  0  0  0
   85.1144  105.9262   18.3575 C   0  0  0  0  0  0  0  0  0  0  0  0
   84.1389  105.5537   19.0049 O   0  0  0  0  0  0  0  0  0  0  0  0
   86.3087  106.4352   19.0776 C   0  0  0  0  0  0  0  0  0  0  0  0
   86.4758  107.8199   19.1960 C   0  0  0  0  0  0  0  0  0  0  0  0
   87.5801  108.3351   19.8760 C   0  0  0  0  0  0  0  0  0  0  0  0
   88.5113  107.4696   20.4497 C   0  0  0  0  0  0  0  0  0  0  0  0
   88.3366  106.0887   20.3530 C   0  0  0  0  0  0  0  0  0  0  0  0
   87.2332  105.5685   19.6732 C   0  0  0  0  0  0  0  0  0  0  0  0
  7  8  1  0  0  0
  8  9  1  0  0  0
  9 10  2  0  0  0
  9 11  1  0  0  0
  8  1  1  0  0  0
  1  2  2  0  0  0
  2  3  1  0  0  0
  3  4  2  0  0  0
  4  5  1  0  0  0
  5 13  1  0  0  0
 13 14  2  0  0  0
 13 15  1  0  0  0
 15 16  2  0  0  0
 16 17  1  0  0  0
 17 18  2  0  0  0
 18 19  1  0  0  0
 19 20  2  0  0  0
  5  6  2  0  0  0
  6  1  1  0  0  0
 20 15  1  0  0  0
 11 12  1  0  0  0
M  END
> <minimizedAffinity>
-7.54742

$$$$
decoy_indomethacin


 26 28  0  0  0  0  0  0  0  0999 V2000
   85.0745  105.5544   18.5691 C   0  0  0  0  0  0  0  0  0  0  0  0
   86.4633  105.5885   18.6037 C   0  0  0  0  0  0  0  0  0  0  0  0
   87.1623  105.7079   19.8097 C   0  0  0  0  0  0  0  0  0  0  0  0
   86.4349  105.7702   21.0146 C   0  0  0  0  0  0  0  0  0  0  0  0
   85.0382  105.7885   20.9970 C   0  0  0  0  0  0  0  0  0  0  0  0
   84.3566  105.6624   19.7615 C   0  0  0  0  0  0  0  0  0  0  0  0
   84.5868  105.9834   22.3347 C   0  0  0  0  0  0  0  0  0  0  0  0
   85.7146  106.0954   23.1348 C   0  0  0  0  0  0  0  0  0  0  0  0
   85.7918  106.3650   24.6042 C   0  0  0  0  0  0  0  0  0  0  0  0
   86.8493  105.8601   22.3504 N   0  0  0  0  0  0  0  0  0  0  0  0
   88.1824  105.7402   22.8302 C   0  0  0  0  0  0  0  0  0  0  0  0
   88.4598  106.2474   23.9164 O   0  0  0  0  0  0  0  0  0  0  0  0
   89.2741  105.0113   22.1444 C   0  0  0  0  0  0  0  0  0  0  0  0
   89.3654  103.6158   22.2275 C   0  0  0  0  0  0  0  0  0  0  0  0
   90.4212  102.9519   21.5974 C   0  0  0  0  0  0  0  0  0  0  0  0
   91.3877  103.6826   20.9053 C   0  0  0  0  0  0  0  0  0  0  0  0
   92.6851  102.8608   20.1309 Cl  0  0  0  0  0  0  0  0  0  0  0  0
   91.3144  105.0742   20.8429 C   0  0  0  0  0  0  0  0  0  0  0  0
   90.2604  105.7421   21.4705 C   0  0  0  0  0  0  0  0  0  0  0  0
   85.0391  106.3057   16.3131 C   0  0  0  0  0  0  0  0  0  0  0  0
   84.5369  105.4323   17.3169 O   0  0  0  0  0  0  0  0  0  0  0  0
   83.1551  106.0832   22.7630 C   0  0  0  0  0  0  0  0  0  0  0  0
   82.4575  104.7492   22.6990 C   0  0  0  0  0  0  0  0  0  0  0  0
   82.7243  103.7540   23.3538 O   0  0  0  0  0  0  0  0  0  0  0  0
   81.4362  104.7269   21.8158 O   0  0  0  0  0  0  0  0  0  0  0  0
   81.0629  103.8262   21.9220 H   0  0  0  0  0  0  0  0  0  0  0  0
 20 21  1  0  0  0
 21  1  1  0  0  0
  1  2  2  0  0  0
  2  3  1  0  0  0
  3  4  2  0  0  0
  4  5  1  0  0  0
  5  6  2  0  0  0
  5  7  1  0  0  0
  7 22  1  0  0  0
 22 23  1  0  0  0
 23 24  2  0  0  0
 23 25  1  0  0  0
  7  8  2  0  0  0
  8  9  1  0  0  0
  8 10  1  0  0  0
 10 11  1  0  0  0
 11 12  2  0  0  0
 11 13  1  0  0  0
 13 14  2  0  0  0
 14 15  1  0  0  0
 15 16  2  0  0  0
 16 17  1  0  0  0
 16 18  1  0  0  0
 18 19  2  0  0  0
  6  1  1  0  0  0
 19 13  1  0  0  0
 10  4  1  0  0  0
 25 26  1  0  0  0
M  END
> <minimizedAffinity>
-6.93019

$$$$
decoy_ibuprofen


 16 16  0  0  0  0  0  0  0  0999 V2000
   85.2254  106.2719   17.5411 C   0  0  0  0  0  0  0  0  0  0  0  0
   85.2142  107.0070   16.3504 C   0  0  0  0  0  0  0  0  0  0  0  0
   85.1827  106.3590   15.1125 C   0  0  0  0  0  0  0  0  0  0  0  0
   85.1598  104.9586   15.0348 C   0  0  0  0  0  0  0  0  0  0  0  0
   85.1655  104.2259   16.2302 C   0  0  0  0  0  0  0  0  0  0  0  0
   85.1953  104.8748   17.4675 C   0  0  0  0  0  0  0  0  0  0  0  0
   85.1395  104.2763   13.6759 C   0  0  0  0  0  0  0  0  0  0  0  0
   85.8054  102.9006   13.7196 C   0  0  0  0  0  0  0  0  0  0  0  0
   83.7448  104.1405   13.0888 C   0  0  0  0  0  0  0  0  0  0  0  0
   82.9011  103.2937   13.3326 O   0  0  0  0  0  0  0  0  0  0  0  0
   83.4912  105.0829   12.1529 O   0  0  0  0  0  0  0  0  0  0  0  0
   82.5801  104.8732   11.8569 H   0  0  0  0  0  0  0  0  0  0  0  0
   85.2583  106.9717   18.8786 C   0  0  0  0  0  0  0  0  0  0  0  0
   83.6357  105.9284   20.5622 C   0  0  0  0  0  0  0  0  0  0  0  0
   85.0933  106.0754   20.1237 C   0  0  0  0  0  0  0  0  0  0  0  0
   85.9624  106.5241   21.2992 C   0  0  0  0  0  0  0  0  0  0  0  0
 14 15  1  0  0  0
 15 16  1  0  0  0
 15 13  1  0  0  0
 13  1  1  0  0  0
  1  2  2  0  0  0
  2  3  1  0  0  0
  3  4  2  0  0  0
  4  7  1  0  0  0
  7  8  1  0  0  0
  7  9  1  0  0  0
  9 10  2  0  0  0
  9 11  1  0  0  0
  4  5  1  0  0  0
  5  6  2  0  0  0
  6  1  1  0  0  0
 11 12  1  0  0  0
M  END
> <minimizedAffinity>
-5.98159

$$$$
decoy_hydrochlorothiazide


 21 22  0  0  0  0  0  0  0  0999 V2000
   85.4824  105.9794   17.4621 C   0  0  0  0  0  0  0  0  0  0  0  0
   85.1902  104.8135   16.7444 C   0  0  0  0  0  0  0  0  0  0  0  0
   84.9129  104.9028   15.3763 C   0  0  0  0  0  0  0  0  0  0  0  0
   84.8888  106.1202   14.6968 C   0  0  0  0  0  0  0  0  0  0  0  0
   85.1952  107.2713   15.4359 C   0  0  0  0  0  0  0  0  0  0  0  0
   85.4885  107.2133   16.8093 C   0  0  0  0  0  0  0  0  0  0  0  0
   85.8239  108.7180   17.5886 Cl  0  0  0  0  0  0  0  0  0  0  0  0
   84.6597  106.2437   13.3294 N   0  0  0  0  0  0  0  0  0  0  0  0
   84.4511  105.0831   12.4979 C   0  0  0  0  0  0  0  0  0  0  0  0
   83.6367  104.1054   13.1802 N   0  0  0  0  0  0  0  0  0  0  0  0
   84.4525  103.4564   14.4981 S   0  0  0  0  0  0  0  0  0  0  0  0
   83.4727  102.7321   15.2752 O   0  0  0  0  0  0  0  0  0  0  0  0
   85.6516  102.8214   14.0006 O   0  0  0  0  0  0  0  0  0  0  0  0
   84.0681  107.0338   13.0860 H   0  0  0  0  0  0  0  0  0  0  0  0
   83.3292  103.3460   12.5756 H   0  0  0  0  0  0  0  0  0  0  0  0
   85.5947  104.2063   19.4920 N   0  0  0  0  0  0  0  0  0  0  0  0
   85.8548  105.8341   19.1806 S   0  0  0  0  0  0  0  0  0  0  0  0
   87.2764  106.0201   19.3651 O   0  0  0  0  0  0  0  0  0  0  0  0
   84.8876  106.5807   19.9467 O   0  0  0  0  0  0  0  0  0  0  0  0
   84.8170  104.0977   20.1449 H   0  0  0  0  0  0  0  0  0  0  0  0
   86.4624  103.7709   19.8081 H   0  0  0  0  0  0  0  0  0  0  0  0
 16 17  1  0  0  0
 17 18  2  0  0  0
 17 19  2  0  0  0
 17  1  1  0  0  0
  1  2  2  0  0  0
  2  3  1  0  0  0
  3  4  2  0  0  0
  4  5  1  0  0  0
  5  6  2  0  0  0
  6  7  1  0  0  0
  4  8  1  0  0  0
  8  9  1  0  0  0
  9 10  1  0  0  0
 10 11  1  0  0  0
 11 12  2  0  0  0
 11 13  2  0  0  0
  6  1  1  0  0  0
 11  3  1  0  0  0
 16 20  1  0  0  0
 16 21  1  0  0  0
  8 14  1  0  0  0
 10 15  1  0  0  0
M  END
> <minimizedAffinity>
-6.88948

$$$$
decoy_haloperidol


 27 29  0  0  0  0  0  0  0  0999 V2000
   86.4036  105.5871   21.7168 N   0  0  0  0  0  0  0  0  0  0  0  0
   87.3663  105.6211   20.6205 C   0  0  0  0  0  0  0  0  0  0  0  0
   86.7888  106.3706   19.4124 C   0  0  0  0  0  0  0  0  0  0  0  0
   85.3630  105.9140   19.0256 C   0  0  0  0  0  0  0  0  0  0  0  0
   84.4394  106.9590   19.3878 O   0  0  0  0  0  0  0  0  0  0  0  0
   84.9638  104.6764   19.8414 C   0  0  0  0  0  0  0  0  0  0  0  0
   85.1603  104.8916   21.3476 C   0  0  0  0  0  0  0  0  0  0  0  0
   83.6350  106.8342   18.8558 H   0  0  0  0  0  0  0  0  0  0  0  0
   85.2420  105.7570   17.5042 C   0  0  0  0  0  0  0  0  0  0  0  0
   85.2677  106.9129   16.6950 C   0  0  0  0  0  0  0  0  0  0  0  0
   85.1596  106.8307   15.3045 C   0  0  0  0  0  0  0  0  0  0  0  0
   85.0227  105.5875   14.6982 C   0  0  0  0  0  0  0  0  0  0  0  0
   84.8891  105.4776   12.9871 Cl  0  0  0  0  0  0  0  0  0  0  0  0
   84.9920  104.4309   15.4716 C   0  0  0  0  0  0  0  0  0  0  0  0
   85.0999  104.5149   16.8649 C   0  0  0  0  0  0  0  0  0  0  0  0
   86.9481  105.0585   22.9755 C   0  0  0  0  0  0  0  0  0  0  0  0
   88.2332  104.2441   22.7605 C   0  0  0  0  0  0  0  0  0  0  0  0
   89.2404  104.4436   23.8913 C   0  0  0  0  0  0  0  0  0  0  0  0
   90.8149  102.9095   24.8246 O   0  0  0  0  0  0  0  0  0  0  0  0
   90.3906  103.4600   23.8087 C   0  0  0  0  0  0  0  0  0  0  0  0
   91.0120  103.1373   22.4866 C   0  0  0  0  0  0  0  0  0  0  0  0
   91.6814  104.0924   21.7086 C   0  0  0  0  0  0  0  0  0  0  0  0
   92.2385  103.7292   20.4781 C   0  0  0  0  0  0  0  0  0  0  0  0
   92.1247  102.4191   20.0276 C   0  0  0  0  0  0  0  0  0  0  0  0
   92.6599  102.0784   18.8486 F   0  0  0  0  0  0  0  0  0  0  0  0
   91.4617  101.4605   20.7823 C   0  0  0  0  0  0  0  0  0  0  0  0
   90.9038  101.8194   22.0114 C   0  0  0  0  0  0  0  0  0  0  0  0
 19 20  2  0  0  0
 20 18  1  0  0  0
 18 17  1  0  0  0
 17 16  1  0  0  0
 16  1  1  0  0  0
  1  2  1  0  0  0
  2  3  1  0  0  0
  3  4  1  0  0  0
  4  5  1  0  0  0
  4  9  1  0  0  0
  9 10  2  0  0  0
 10 11  1  0  0  0
 11 12  2  0  0  0
 12 13  1  0  0  0
 12 14  1  0  0  0
 14 15  2  0  0  0
  4  6  1  0  0  0
  6  7  1  0  0  0
 20 21  1  0  0  0
 21 22  2  0  0  0
 22 23  1  0  0  0
 23 24  2  0  0  0
 24 25  1  0  0  0
 24 26  1  0  0  0
 26 27  2  0  0  0
  7  1  1  0  0  0
 27 21  1  0  0  0
 15  9  1  0  0  0
  5  8  1  0  0  0
M  END
> <minimizedAffinity>
-8.13306

$$$$
decoy_furosemide


 25 26  0  0  0  0  0  0  0  0999 V2000
   84.9867  104.7045   15.1871 C   0  0  0  0  0  0  0  0  0  0  0  0
   85.1812  104.3733   16.5343 C   0  0  0  0  0  0  0  0  0  0  0  0
   85.5163  105.3608   17.4803 C   0  0  0  0  0  0  0  0  0  0  0  0
   85.6732  106.7078   17.0772 C   0  0  0  0  0  0  0  0  0  0  0  0
   85.4283  107.0142   15.7253 C   0  0  0  0  0  0  0  0  0  0  0  0
   85.1039  106.0291   14.7808 C   0  0  0  0  0  0  0  0  0  0  0  0
   84.9009  106.5583   13.1506 Cl  0  0  0  0  0  0  0  0  0  0  0  0
   84.1681  102.1157   15.0571 N   0  0  0  0  0  0  0  0  0  0  0  0
   84.5521  103.4118   14.0603 S   0  0  0  0  0  0  0  0  0  0  0  0
   83.2952  103.7644   13.4382 O   0  0  0  0  0  0  0  0  0  0  0  0
   85.7201  103.0767   13.2843 O   0  0  0  0  0  0  0  0  0  0  0  0
   84.5211  102.1849   16.0091 H   0  0  0  0  0  0  0  0  0  0  0  0
   83.1684  101.9181   14.9998 H   0  0  0  0  0  0  0  0  0  0  0  0
   85.6979  104.8718   18.8777 C   0  0  0  0  0  0  0  0  0  0  0  0
   84.8317  104.3523   19.5586 O   0  0  0  0  0  0  0  0  0  0  0  0
   86.9501  105.0032   19.3540 O   0  0  0  0  0  0  0  0  0  0  0  0
   86.8927  104.6167   20.2548 H   0  0  0  0  0  0  0  0  0  0  0  0
   85.9249  107.7356   18.0061 N   0  0  0  0  0  0  0  0  0  0  0  0
   86.3828  108.5210   17.5232 H   0  0  0  0  0  0  0  0  0  0  0  0
   84.8240  108.2609   18.8217 C   0  0  0  0  0  0  0  0  0  0  0  0
   84.7931  107.7868   20.2352 C   0  0  0  0  0  0  0  0  0  0  0  0
   83.7735  107.4564   21.1043 C   0  0  0  0  0  0  0  0  0  0  0  0
   84.3927  107.0830   22.3216 C   0  0  0  0  0  0  0  0  0  0  0  0
   85.7466  107.2094   22.1184 C   0  0  0  0  0  0  0  0  0  0  0  0
   86.0004  107.6355   20.8547 O   0  0  0  0  0  0  0  0  0  0  0  0
  8  9  1  0  0  0
  9 10  2  0  0  0
  9 11  2  0  0  0
  9  1  1  0  0  0
  1  2  2  0  0  0
  2  3  1  0  0  0
  3 14  1  0  0  0
 14 15  2  0  0  0
 14 16  1  0  0  0
  3  4  2  0  0  0
  4 18  1  0  0  0
 18 20  1  0  0  0
 20 21  1  0  0  0
 21 22  2  0  0  0
 22 23  1  0  0  0
 23 24  2  0  0  0
 24 25  1  0  0  0
  4  5  1  0  0  0
  5  6  2  0  0  0
  6  7  1  0  0  0
  6  1  1  0  0  0
 25 21  1  0  0  0
  8 12  1  0  0  0
  8 13  1  0  0  0
 16 17  1  0  0  0
 18 19  1  0  0  0
M  END
> <minimizedAffinity>
-6.60814

$$$$
decoy_fluoxetine


 23 24  0  0  0  0  0  0  0  0999 V2000
   85.0045  105.4119   20.0737 C   0  0  0  0  0  0  0  0  0  0  0  0
   86.3351  105.1500   20.7613 C   0  0  0  0  0  0  0  0  0  0  0  0
   86.4136  104.3505   21.9121 C   0  0  0  0  0  0  0  0  0  0  0  0
   87.6427  104.1066   22.5264 C   0  0  0  0  0  0  0  0  0  0  0  0
   88.8086  104.6546   21.9967 C   0  0  0  0  0  0  0  0  0  0  0  0
   88.7474  105.4473   20.8526 C   0  0  0  0  0  0  0  0  0  0  0  0
   87.5190  105.6938   20.2373 C   0  0  0  0  0  0  0  0  0  0  0  0
   83.9520  105.9546   21.0624 C   0  0  0  0  0  0  0  0  0  0  0  0
   82.5429  105.4214   20.7902 C   0  0  0  0  0  0  0  0  0  0  0  0
   82.6346  103.9092   22.6919 C   0  0  0  0  0  0  0  0  0  0  0  0
   81.8662  104.9310   21.9941 N   0  0  0  0  0  0  0  0  0  0  0  0
   81.6763  105.7059   22.6289 H   0  0  0  0  0  0  0  0  0  0  0  0
   85.1455  106.4222   19.0570 O   0  0  0  0  0  0  0  0  0  0  0  0
   85.1229  106.0496   17.7429 C   0  0  0  0  0  0  0  0  0  0  0  0
   85.1164  104.7445   17.2551 C   0  0  0  0  0  0  0  0  0  0  0  0
   85.1057  104.5079   15.8751 C   0  0  0  0  0  0  0  0  0  0  0  0
   85.1143  105.5733   14.9628 C   0  0  0  0  0  0  0  0  0  0  0  0
   85.1233  106.8827   15.4606 C   0  0  0  0  0  0  0  0  0  0  0  0
   85.1352  107.1141   16.8384 C   0  0  0  0  0  0  0  0  0  0  0  0
   85.0808  105.3143   13.4769 C   0  0  0  0  0  0  0  0  0  0  0  0
   85.5442  104.0743   13.1578 F   0  0  0  0  0  0  0  0  0  0  0  0
   85.8409  106.1918   12.7634 F   0  0  0  0  0  0  0  0  0  0  0  0
   83.8282  105.3931   12.9465 F   0  0  0  0  0  0  0  0  0  0  0  0
 10 11  1  0  0  0
 11  9  1  0  0  0
  9  8  1  0  0  0
  8  1  1  0  0  0
  1 13  1  0  0  0
 13 14  1  0  0  0
 14 15  2  0  0  0
 15 16  1  0  0  0
 16 17  2  0  0  0
 17 20  1  0  0  0
 20 21  1  0  0  0
 20 22  1  0  0  0
 20 23  1  0  0  0
 17 18  1  0  0  0
 18 19  2  0  0  0
  1  2  1  0  0  0
  2  3  2  0  0  0
  3  4  1  0  0  0
  4  5  2  0  0  0
  5  6  1  0  0  0
  6  7  2  0  0  0
 19 14  1  0  0  0
  7  2  1  0  0  0
 11 12  1  0  0  0
M  END
> <minimizedAffinity>
-6.86025

$$$$
decoy_fluconazole


 23 25  0  0  0  0  0  0  0  0999 V2000
   84.2720  106.9672   19.0514 O   0  0  0  0  0  0  0  0  0  0  0  0
   85.3257  106.0289   18.7253 C   0  0  0  0  0  0  0  0  0  0  0  0
   84.5282  107.8305   18.6521 H   0  0  0  0  0  0  0  0  0  0  0  0
   85.2343  105.7027   17.2297 C   0  0  0  0  0  0  0  0  0  0  0  0
   85.0725  104.3900   16.7480 C   0  0  0  0  0  0  0  0  0  0  0  0
   84.9834  104.1347   15.3751 C   0  0  0  0  0  0  0  0  0  0  0  0
   85.0384  105.1859   14.4698 C   0  0  0  0  0  0  0  0  0  0  0  0
   84.9482  104.9337   13.1582 F   0  0  0  0  0  0  0  0  0  0  0  0
   85.1655  106.4917   14.9088 C   0  0  0  0  0  0  0  0  0  0  0  0
   85.2534  106.7384   16.2752 C   0  0  0  0  0  0  0  0  0  0  0  0
   85.3164  108.0174   16.6715 F   0  0  0  0  0  0  0  0  0  0  0  0
   86.6608  106.6594   19.2213 C   0  0  0  0  0  0  0  0  0  0  0  0
   86.5429  108.0110   19.7406 N   0  0  0  0  0  0  0  0  0  0  0  0
   86.9910  109.1599   19.1669 C   0  0  0  0  0  0  0  0  0  0  0  0
   86.6909  110.1791   19.9375 N   0  0  0  0  0  0  0  0  0  0  0  0
   86.0649  109.5916   20.9990 C   0  0  0  0  0  0  0  0  0  0  0  0
   85.9528  108.2611   20.9276 N   0  0  0  0  0  0  0  0  0  0  0  0
   84.9994  104.7668   19.5638 C   0  0  0  0  0  0  0  0  0  0  0  0
   84.1220  104.9932   20.6864 N   0  0  0  0  0  0  0  0  0  0  0  0
   84.4595  105.1259   21.9965 C   0  0  0  0  0  0  0  0  0  0  0  0
   83.3728  105.3101   22.7095 N   0  0  0  0  0  0  0  0  0  0  0  0
   82.3785  105.2649   21.7760 C   0  0  0  0  0  0  0  0  0  0  0  0
   82.7894  105.0851   20.5167 N   0  0  0  0  0  0  0  0  0  0  0  0
  1  2  1  0  0  0
  2 12  1  0  0  0
 12 13  1  0  0  0
 13 14  1  0  0  0
 14 15  2  0  0  0
 15 16  1  0  0  0
 16 17  2  0  0  0
  2 18  1  0  0  0
 18 19  1  0  0  0
 19 20  1  0  0  0
 20 21  2  0  0  0
 21 22  1  0  0  0
 22 23  2  0  0  0
  2  4  1  0  0  0
  4  5  2  0  0  0
  5  6  1  0  0  0
  6  7  2  0  0  0
  7  8  1  0  0  0
  7  9  1  0  0  0
  9 10  2  0  0  0
 10 11  1  0  0  0
 17 13  1  0  0  0
 23 19  1  0  0  0
 10  4  1  0  0  0
  1  3  1  0  0  0
M  END
> <minimizedAffinity>
-6.10647

$$$$
decoy_diphenhydramine


 19 20  0  0  0  0  0  0  0  0999 V2000
   91.3596  104.8785   22.9960 C   0  0  0  0  0  0  0  0  0  0  0  0
   92.3950  105.0845   24.0924 C   0  0  0  0  0  0  0  0  0  0  0  0
   92.0122  105.0456   25.4456 C   0  0  0  0  0  0  0  0  0  0  0  0
   92.9517  105.2510   26.4598 C   0  0  0  0  0  0  0  0  0  0  0  0
   94.2838  105.5011   26.1366 C   0  0  0  0  0  0  0  0  0  0  0  0
   94.6788  105.5471   24.7998 C   0  0  0  0  0  0  0  0  0  0  0  0
   93.7411  105.3415   23.7847 C   0  0  0  0  0  0  0  0  0  0  0  0
   91.5917  103.5941   22.2105 C   0  0  0  0  0  0  0  0  0  0  0  0
   91.9668  103.6575   20.8567 C   0  0  0  0  0  0  0  0  0  0  0  0
   92.1958  102.4910   20.1241 C   0  0  0  0  0  0  0  0  0  0  0  0
   92.0599  101.2461   20.7349 C   0  0  0  0  0  0  0  0  0  0  0  0
   91.6965  101.1659   22.0784 C   0  0  0  0  0  0  0  0  0  0  0  0
   91.4658  102.3312   22.8118 C   0  0  0  0  0  0  0  0  0  0  0  0
   90.0529  104.8812   23.5957 O   0  0  0  0  0  0  0  0  0  0  0  0
   89.1953  105.9128   23.0996 C   0  0  0  0  0  0  0  0  0  0  0  0
   88.2457  105.3678   22.0140 C   0  0  0  0  0  0  0  0  0  0  0  0
   89.3760  106.9065   20.4926 C   0  0  0  0  0  0  0  0  0  0  0  0
   88.5440  105.7116   20.6124 N   0  0  0  0  0  0  0  0  0  0  0  0
   87.3403  105.8275   19.7925 C   0  0  0  0  0  0  0  0  0  0  0  0
 17 18  1  0  0  0
 18 19  1  0  0  0
 18 16  1  0  0  0
 16 15  1  0  0  0
 15 14  1  0  0  0
 14  1  1  0  0  0
  1  2  1  0  0  0
  2  3  2  0  0  0
  3  4  1  0  0  0
  4  5  2  0  0  0
  5  6  1  0  0  0
  6  7  2  0  0  0
  1  8  1  0  0  0
  8  9  2  0  0  0
  9 10  1  0  0  0
 10 11  2  0  0  0
 11 12  1  0  0  0
 12 13  2  0  0  0
  7  2  1  0  0  0
 13  8  1  0  0  0
M  END
> <minimizedAffinity>
-5.53841

$$$$
decoy_diazepam


 20 22  0  0  0  0  0  0  0  0999 V2000
   85.3575  104.7860   19.7062 C   0  0  0  0  0  0  0  0  0  0  0  0
   86.5282  105.3889   20.3297 N   0  0  0  0  0  0  0  0  0  0  0  0
   87.0288  106.5505   19.7279 C   0  0  0  0  0  0  0  0  0  0  0  0
   86.5637  107.0008   18.6764 O   0  0  0  0  0  0  0  0  0  0  0  0
   88.1259  107.3017   20.4693 C   0  0  0  0  0  0  0  0  0  0  0  0
   89.3615  106.5276   20.4156 N   0  0  0  0  0  0  0  0  0  0  0  0
   89.4235  105.4387   21.1050 C   0  0  0  0  0  0  0  0  0  0  0  0
   88.3335  104.9566   22.0033 C   0  0  0  0  0  0  0  0  0  0  0  0
   88.7125  104.5135   23.2847 C   0  0  0  0  0  0  0  0  0  0  0  0
   87.7709  103.9447   24.1337 C   0  0  0  0  0  0  0  0  0  0  0  0
   88.2431  103.3908   25.6907 Cl  0  0  0  0  0  0  0  0  0  0  0  0
   86.4518  103.8118   23.7223 C   0  0  0  0  0  0  0  0  0  0  0  0
   86.0668  104.2748   22.4597 C   0  0  0  0  0  0  0  0  0  0  0  0
   86.9894  104.8818   21.5853 C   0  0  0  0  0  0  0  0  0  0  0  0
   90.6762  104.6247   20.9898 C   0  0  0  0  0  0  0  0  0  0  0  0
   91.9158  105.2667   21.0979 C   0  0  0  0  0  0  0  0  0  0  0  0
   93.0974  104.5310   20.9941 C   0  0  0  0  0  0  0  0  0  0  0  0
   93.0451  103.1555   20.7717 C   0  0  0  0  0  0  0  0  0  0  0  0
   91.8132  102.5139   20.6438 C   0  0  0  0  0  0  0  0  0  0  0  0
   90.6282  103.2459   20.7466 C   0  0  0  0  0  0  0  0  0  0  0  0
  1  2  1  0  0  0
  2  3  1  0  0  0
  3  4  2  0  0  0
  3  5  1  0  0  0
  5  6  1  0  0  0
  6  7  2  0  0  0
  7 15  1  0  0  0
 15 16  2  0  0  0
 16 17  1  0  0  0
 17 18  2  0  0  0
 18 19  1  0  0  0
 19 20  2  0  0  0
  7  8  1  0  0  0
  8  9  2  0  0  0
  9 10  1  0  0  0
 10 11  1  0  0  0
 10 12  2  0  0  0
 12 13  1  0  0  0
 13 14  2  0  0  0
 14  2  1  0  0  0
 20 15  1  0  0  0
 14  8  1  0  0  0
M  END
> <minimizedAffinity>
-6.60481

$$$$
decoy_ciprofloxacin


 26 29  0  0  0  0  0  0  0  0999 V2000
   84.5710  104.6962   22.5876 C   0  0  0  0  0  0  0  0  0  0  0  0
   85.1041  105.1446   21.4407 C   0  0  0  0  0  0  0  0  0  0  0  0
   86.4528  105.2089   21.1404 N   0  0  0  0  0  0  0  0  0  0  0  0
   87.3898  104.6228   22.0382 C   0  0  0  0  0  0  0  0  0  0  0  0
   88.7584  104.4985   21.7373 C   0  0  0  0  0  0  0  0  0  0  0  0
   89.6911  103.9275   22.6312 C   0  0  0  0  0  0  0  0  0  0  0  0
   89.1919  103.4988   23.8748 C   0  0  0  0  0  0  0  0  0  0  0  0
   89.9998  102.9485   24.7941 F   0  0  0  0  0  0  0  0  0  0  0  0
   87.8431  103.5992   24.2027 C   0  0  0  0  0  0  0  0  0  0  0  0
   86.9470  104.1502   23.2852 C   0  0  0  0  0  0  0  0  0  0  0  0
   85.5076  104.2419   23.6421 C   0  0  0  0  0  0  0  0  0  0  0  0
   85.1444  103.9647   24.7797 O   0  0  0  0  0  0  0  0  0  0  0  0
   91.0428  103.8655   22.2357 N   0  0  0  0  0  0  0  0  0  0  0  0
   91.3350  103.4643   20.8397 C   0  0  0  0  0  0  0  0  0  0  0  0
   92.8511  103.2164   20.6624 C   0  0  0  0  0  0  0  0  0  0  0  0
   93.6788  104.3804   21.0348 N   0  0  0  0  0  0  0  0  0  0  0  0
   93.3475  104.7901   22.4118 C   0  0  0  0  0  0  0  0  0  0  0  0
   91.8391  105.0526   22.6374 C   0  0  0  0  0  0  0  0  0  0  0  0
   94.6619  104.1152   20.9922 H   0  0  0  0  0  0  0  0  0  0  0  0
   82.3384  104.0769   21.9872 O   0  0  0  0  0  0  0  0  0  0  0  0
   83.1085  104.6965   22.7033 C   0  0  0  0  0  0  0  0  0  0  0  0
   82.6556  105.4049   23.7475 O   0  0  0  0  0  0  0  0  0  0  0  0
   81.6807  105.3380   23.6978 H   0  0  0  0  0  0  0  0  0  0  0  0
   86.8471  105.6762   19.7979 C   0  0  0  0  0  0  0  0  0  0  0  0
   86.3205  105.0351   18.5355 C   0  0  0  0  0  0  0  0  0  0  0  0
   85.8814  106.4162   18.9046 C   0  0  0  0  0  0  0  0  0  0  0  0
 20 21  2  0  0  0
 21 22  1  0  0  0
 21  1  1  0  0  0
  1  2  2  0  0  0
  2  3  1  0  0  0
  3 24  1  0  0  0
 24 25  1  0  0  0
 25 26  1  0  0  0
  3  4  1  0  0  0
  4  5  2  0  0  0
  5  6  1  0  0  0
  6 13  1  0  0  0
 13 14  1  0  0  0
 14 15  1  0  0  0
 15 16  1  0  0  0
 16 17  1  0  0  0
 17 18  1  0  0  0
  6  7  2  0  0  0
  7  8  1  0  0  0
  7  9  1  0  0  0
  9 10  2  0  0  0
 10 11  1  0  0  0
 11 12  2  0  0  0
 11  1  1  0  0  0
 26 24  1  0  0  0
 10  4  1  0  0  0
 18 13  1  0  0  0
 22 23  1  0  0  0
 16 19  1  0  0  0
M  END
> <minimizedAffinity>
-6.89422

$$$$
decoy_chlorpromazine


 21 23  0  0  0  0  0  0  0  0999 V2000
   86.5342  106.0499   21.0213 N   0  0  0  0  0  0  0  0  0  0  0  0
   85.2747  105.8783   21.6681 C   0  0  0  0  0  0  0  0  0  0  0  0
   84.1573  106.6933   21.3743 C   0  0  0  0  0  0  0  0  0  0  0  0
   82.9199  106.5418   22.0127 C   0  0  0  0  0  0  0  0  0  0  0  0
   82.7547  105.5641   22.9778 C   0  0  0  0  0  0  0  0  0  0  0  0
   83.8301  104.7449   23.2988 C   0  0  0  0  0  0  0  0  0  0  0  0
   85.0778  104.8955   22.6595 C   0  0  0  0  0  0  0  0  0  0  0  0
   86.3332  103.7469   23.1697 S   0  0  0  0  0  0  0  0  0  0  0  0
   87.7830  104.3886   22.3703 C   0  0  0  0  0  0  0  0  0  0  0  0
   88.9960  103.7762   22.7476 C   0  0  0  0  0  0  0  0  0  0  0  0
   90.2043  104.1711   22.1856 C   0  0  0  0  0  0  0  0  0  0  0  0
   90.2010  105.1834   21.2424 C   0  0  0  0  0  0  0  0  0  0  0  0
   91.6855  105.6986   20.5386 Cl  0  0  0  0  0  0  0  0  0  0  0  0
   89.0027  105.7950   20.8595 C   0  0  0  0  0  0  0  0  0  0  0  0
   87.7536  105.4163   21.4038 C   0  0  0  0  0  0  0  0  0  0  0  0
   86.5562  106.8839   19.7922 C   0  0  0  0  0  0  0  0  0  0  0  0
   86.1189  106.0773   18.5594 C   0  0  0  0  0  0  0  0  0  0  0  0
   85.3747  106.9427   17.5353 C   0  0  0  0  0  0  0  0  0  0  0  0
   85.0811  104.7532   16.5782 C   0  0  0  0  0  0  0  0  0  0  0  0
   84.7067  106.1680   16.4772 N   0  0  0  0  0  0  0  0  0  0  0  0
   85.0489  106.6657   15.1414 C   0  0  0  0  0  0  0  0  0  0  0  0
 19 20  1  0  0  0
 20 21  1  0  0  0
 20 18  1  0  0  0
 18 17  1  0  0  0
 17 16  1  0  0  0
 16  1  1  0  0  0
  1  2  1  0  0  0
  2  3  2  0  0  0
  3  4  1  0  0  0
  4  5  2  0  0  0
  5  6  1  0  0  0
  6  7  2  0  0  0
  7  8  1  0  0  0
  8  9  1  0  0  0
  9 10  2  0  0  0
 10 11  1  0  0  0
 11 12  2  0  0  0
 12 13  1  0  0  0
 12 14  1  0  0  0
 14 15  2  0  0  0
 15  1  1  0  0  0
  7  2  1  0  0  0
 15  9  1  0  0  0
M  END
> <minimizedAffinity>
-5.63961

$$$$
decoy_celecoxib


 28 30  0  0  0  0  0  0  0  0999 V2000
   84.5922  105.6065   19.2115 C   0  0  0  0  0  0  0  0  0  0  0  0
   83.4843  105.0624   19.8349 C   0  0  0  0  0  0  0  0  0  0  0  0
   83.7847  105.0187   21.2119 C   0  0  0  0  0  0  0  0  0  0  0  0
   85.0108  105.5139   21.4429 N   0  0  0  0  0  0  0  0  0  0  0  0
   85.4729  105.9565   20.2369 N   0  0  0  0  0  0  0  0  0  0  0  0
   85.3920  106.0324   13.5097 C   0  0  0  0  0  0  0  0  0  0  0  0
   85.2133  105.9216   14.9953 C   0  0  0  0  0  0  0  0  0  0  0  0
   85.1500  104.6657   15.6096 C   0  0  0  0  0  0  0  0  0  0  0  0
   84.9517  104.5609   16.9886 C   0  0  0  0  0  0  0  0  0  0  0  0
   84.8146  105.7122   17.7731 C   0  0  0  0  0  0  0  0  0  0  0  0
   84.8455  106.9674   17.1554 C   0  0  0  0  0  0  0  0  0  0  0  0
   85.0441  107.0708   15.7762 C   0  0  0  0  0  0  0  0  0  0  0  0
   86.7077  106.6830   20.2054 C   0  0  0  0  0  0  0  0  0  0  0  0
   87.9104  105.9845   20.4298 C   0  0  0  0  0  0  0  0  0  0  0  0
   89.1403  106.6487   20.4116 C   0  0  0  0  0  0  0  0  0  0  0  0
   89.1757  108.0216   20.1700 C   0  0  0  0  0  0  0  0  0  0  0  0
   87.9923  108.7361   19.9775 C   0  0  0  0  0  0  0  0  0  0  0  0
   86.7619  108.0679   19.9973 C   0  0  0  0  0  0  0  0  0  0  0  0
   90.7257  108.8721   20.1782 S   0  0  0  0  0  0  0  0  0  0  0  0
   91.1324  108.8661   18.5492 N   0  0  0  0  0  0  0  0  0  0  0  0
   90.5082  110.2571   20.5253 O   0  0  0  0  0  0  0  0  0  0  0  0
   91.7151  108.0536   20.8388 O   0  0  0  0  0  0  0  0  0  0  0  0
   91.1804  109.8243   18.2023 H   0  0  0  0  0  0  0  0  0  0  0  0
   91.9925  108.3345   18.4110 H   0  0  0  0  0  0  0  0  0  0  0  0
   82.9087  104.4700   22.3059 C   0  0  0  0  0  0  0  0  0  0  0  0
   81.7802  105.2047   22.4905 F   0  0  0  0  0  0  0  0  0  0  0  0
   83.5498  104.4139   23.5034 F   0  0  0  0  0  0  0  0  0  0  0  0
   82.4976  103.1999   22.0321 F   0  0  0  0  0  0  0  0  0  0  0  0
  6  7  1  0  0  0
  7  8  2  0  0  0
  8  9  1  0  0  0
  9 10  2  0  0  0
 10  1  1  0  0  0
  1  2  2  0  0  0
  2  3  1  0  0  0
  3 25  1  0  0  0
 25 26  1  0  0  0
 25 27  1  0  0  0
 25 28  1  0  0  0
  3  4  2  0  0  0
  4  5  1  0  0  0
  5 13  1  0  0  0
 13 14  2  0  0  0
 14 15  1  0  0  0
 15 16  2  0  0  0
 16 19  1  0  0  0
 19 20  1  0  0  0
 19 21  2  0  0  0
 19 22  2  0  0  0
 16 17  1  0  0  0
 17 18  2  0  0  0
 10 11  1  0  0  0
 11 12  2  0  0  0
 12  7  1  0  0  0
  5  1  1  0  0  0
 18 13  1  0  0  0
 20 23  1  0  0  0
 20 24  1  0  0  0
M  END
> <minimizedAffinity>
-7.50806

$$$$
decoy_captopril


 16 16  0  0  0  0  0  0  0  0999 V2000
   90.7088  103.6064   23.7839 C   0  0  0  0  0  0  0  0  0  0  0  0
   89.5860  103.2056   23.4701 O   0  0  0  0  0  0  0  0  0  0  0  0
   91.7247  103.6543   22.8527 N   0  0  0  0  0  0  0  0  0  0  0  0
   93.0016  104.3395   22.9568 C   0  0  0  0  0  0  0  0  0  0  0  0
   93.2933  104.7758   21.5307 C   0  0  0  0  0  0  0  0  0  0  0  0
   92.7220  103.6355   20.7004 C   0  0  0  0  0  0  0  0  0  0  0  0
   91.4759  103.1972   21.4785 C   0  0  0  0  0  0  0  0  0  0  0  0
   91.3041  101.6834   21.3285 C   0  0  0  0  0  0  0  0  0  0  0  0
   92.2158  100.8680   21.3190 O   0  0  0  0  0  0  0  0  0  0  0  0
   90.0241  101.2568   21.2914 O   0  0  0  0  0  0  0  0  0  0  0  0
   90.1017  100.2894   21.1618 H   0  0  0  0  0  0  0  0  0  0  0  0
   90.8377  102.8284   26.1542 C   0  0  0  0  0  0  0  0  0  0  0  0
   91.0294  104.0262   25.2199 C   0  0  0  0  0  0  0  0  0  0  0  0
   90.1233  105.2058   25.6107 C   0  0  0  0  0  0  0  0  0  0  0  0
   90.4406  106.7027   24.6169 S   0  0  0  0  0  0  0  0  0  0  0  0
   90.0159  106.2054   23.4463 H   0  0  0  0  0  0  0  0  0  0  0  0
 12 13  1  0  0  0
 13 14  1  0  0  0
 14 15  1  0  0  0
 13  1  1  0  0  0
  1  2  2  0  0  0
  1  3  1  0  0  0
  3  4  1  0  0  0
  4  5  1  0  0  0
  5  6  1  0  0  0
  6  7  1  0  0  0
  7  8  1  0  0  0
  8  9  2  0  0  0
  8 10  1  0  0  0
  7  3  1  0  0  0
 15 16  1  0  0  0
 10 11  1  0  0  0
M  END
> <minimizedAffinity>
-4.92579

$$$$
decoy_caffeine


 14 15  0  0  0  0  0  0  0  0999 V2000
   85.9868  104.8842   18.6241 C   0  0  0  0  0  0  0  0  0  0  0  0
   85.5841  105.7275   17.5275 N   0  0  0  0  0  0  0  0  0  0  0  0
   85.4891  107.0939   17.5500 C   0  0  0  0  0  0  0  0  0  0  0  0
   85.0931  107.5731   16.3873 N   0  0  0  0  0  0  0  0  0  0  0  0
   84.9326  106.4706   15.6035 C   0  0  0  0  0  0  0  0  0  0  0  0
   85.2261  105.3221   16.2738 C   0  0  0  0  0  0  0  0  0  0  0  0
   85.1398  104.0321   15.6838 C   0  0  0  0  0  0  0  0  0  0  0  0
   85.4066  103.0029   16.2970 O   0  0  0  0  0  0  0  0  0  0  0  0
   84.7234  104.0740   14.3499 N   0  0  0  0  0  0  0  0  0  0  0  0
   84.5955  102.8197   13.6344 C   0  0  0  0  0  0  0  0  0  0  0  0
   84.4107  105.2414   13.6220 C   0  0  0  0  0  0  0  0  0  0  0  0
   84.0503  105.1758   12.4428 O   0  0  0  0  0  0  0  0  0  0  0  0
   84.5269  106.4603   14.2910 N   0  0  0  0  0  0  0  0  0  0  0  0
   84.2239  107.7077   13.6137 C   0  0  0  0  0  0  0  0  0  0  0  0
  1  2  1  0  0  0
  2  3  1  0  0  0
  3  4  2  0  0  0
  4  5  1  0  0  0
  5  6  2  0  0  0
  6  7  1  0  0  0
  7  8  2  0  0  0
  7  9  1  0  0  0
  9 10  1  0  0  0
  9 11  1  0  0  0
 11 12  2  0  0  0
 11 13  1  0  0  0
 13 14  1  0  0  0
  6  2  1  0  0  0
 13  5  1  0  0  0
M  END
> <minimizedAffinity>
-5.23847

$$$$
decoy_atenolol


 23 23  0  0  0  0  0  0  0  0999 V2000
   85.2344  105.2736   17.1685 C   0  0  0  0  0  0  0  0  0  0  0  0
   85.9105  104.6768   18.2305 C   0  0  0  0  0  0  0  0  0  0  0  0
   86.5015  105.4675   19.2219 C   0  0  0  0  0  0  0  0  0  0  0  0
   86.4283  106.8655   19.1609 C   0  0  0  0  0  0  0  0  0  0  0  0
   85.7494  107.4604   18.0903 C   0  0  0  0  0  0  0  0  0  0  0  0
   85.1612  106.6667   17.1036 C   0  0  0  0  0  0  0  0  0  0  0  0
   84.6132  104.6206   16.1399 O   0  0  0  0  0  0  0  0  0  0  0  0
   85.1232  103.3265   15.7904 C   0  0  0  0  0  0  0  0  0  0  0  0
   84.4335  102.8957   14.4896 C   0  0  0  0  0  0  0  0  0  0  0  0
   83.0205  102.7743   14.7061 O   0  0  0  0  0  0  0  0  0  0  0  0
   82.9163  102.3030   15.5523 H   0  0  0  0  0  0  0  0  0  0  0  0
   84.7091  103.8490   13.3061 C   0  0  0  0  0  0  0  0  0  0  0  0
   83.8768  105.0615   13.3031 N   0  0  0  0  0  0  0  0  0  0  0  0
   83.3416  105.1318   14.1663 H   0  0  0  0  0  0  0  0  0  0  0  0
   86.1184  106.1443   13.4714 C   0  0  0  0  0  0  0  0  0  0  0  0
   84.6439  106.2963   13.0922 C   0  0  0  0  0  0  0  0  0  0  0  0
   84.0022  107.3977   13.9389 C   0  0  0  0  0  0  0  0  0  0  0  0
   87.0708  107.7120   20.2325 C   0  0  0  0  0  0  0  0  0  0  0  0
   88.5636  107.8829   20.0351 C   0  0  0  0  0  0  0  0  0  0  0  0
   89.3544  107.0212   20.7421 N   0  0  0  0  0  0  0  0  0  0  0  0
   89.0564  108.7155   19.2809 O   0  0  0  0  0  0  0  0  0  0  0  0
   89.0078  106.6234   21.6057 H   0  0  0  0  0  0  0  0  0  0  0  0
   90.3469  107.2138   20.6975 H   0  0  0  0  0  0  0  0  0  0  0  0
 15 16  1  0  0  0
 16 17  1  0  0  0
 16 13  1  0  0  0
 13 12  1  0  0  0
 12  9  1  0  0  0
  9 10  1  0  0  0
  9  8  1  0  0  0
  8  7  1  0  0  0
  7  1  1  0  0  0
  1  2  2  0  0  0
  2  3  1  0  0  0
  3  4  2  0  0  0
  4 18  1  0  0  0
 18 19  1  0  0  0
 19 20  1  0  0  0
 19 21  2  0  0  0
  4  5  1  0  0  0
  5  6  2  0  0  0
  6  1  1  0  0  0
 13 14  1  0  0  0
 10 11  1  0  0  0
 20 22  1  0  0  0
 20 23  1  0  0  0
M  END
> <minimizedAffinity>
-6.08927

$$$$
decoy_aspirin


 14 14  0  0  0  0  0  0  0  0999 V2000
   85.1860  104.5089   15.4311 C   0  0  0  0  0  0  0  0  0  0  0  0
   85.2770  104.0441   16.7491 C   0  0  0  0  0  0  0  0  0  0  0  0
   85.2699  104.9507   17.8076 C   0  0  0  0  0  0  0  0  0  0  0  0
   85.1614  106.3162   17.5521 C   0  0  0  0  0  0  0  0  0  0  0  0
   85.0513  106.7760   16.2364 C   0  0  0  0  0  0  0  0  0  0  0  0
   85.0520  105.8767   15.1569 C   0  0  0  0  0  0  0  0  0  0  0  0
   84.9013  106.4653   13.8025 C   0  0  0  0  0  0  0  0  0  0  0  0
   85.7821  106.5221   12.9616 O   0  0  0  0  0  0  0  0  0  0  0  0
   83.6922  106.9931   13.5470 O   0  0  0  0  0  0  0  0  0  0  0  0
   83.7881  107.3384   12.6342 H   0  0  0  0  0  0  0  0  0  0  0  0
   85.1802  103.5318   14.4329 O   0  0  0  0  0  0  0  0  0  0  0  0
   83.4174  101.9902   14.6307 C   0  0  0  0  0  0  0  0  0  0  0  0
   83.9005  103.2476   13.9715 C   0  0  0  0  0  0  0  0  0  0  0  0
   83.2545  103.8904   13.1543 O   0  0  0  0  0  0  0  0  0  0  0  0
 12 13  1  0  0  0
 13 14  2  0  0  0
 13 11  1  0  0  0
 11  1  1  0  0  0
  1  2  2  0  0  0
  2  3  1  0  0  0
  3  4  2  0  0  0
  4  5  1  0  0  0
  5  6  2  0  0  0
  6  7  1  0  0  0
  7  8  2  0  0  0
  7  9  1  0  0  0
  6  1  1  0  0  0
  9 10  1  0  0  0
M  END
> <minimizedAffinity>
-5.74111

$$$$
decoy_amlodipine


 31 32  0  0  0  0  0  0  0  0999 V2000
   88.5680  105.3739   21.8021 C   0  0  0  0  0  0  0  0  0  0  0  0
   88.0919  106.1340   20.7887 C   0  0  0  0  0  0  0  0  0  0  0  0
   88.9534  106.9842   20.1051 N   0  0  0  0  0  0  0  0  0  0  0  0
   90.2629  107.2365   20.4734 C   0  0  0  0  0  0  0  0  0  0  0  0
   90.9414  108.3742   19.7564 C   0  0  0  0  0  0  0  0  0  0  0  0
   90.8254  106.4974   21.4555 C   0  0  0  0  0  0  0  0  0  0  0  0
   90.0484  105.4077   22.1921 C   0  0  0  0  0  0  0  0  0  0  0  0
   88.4786  107.6487   19.4895 H   0  0  0  0  0  0  0  0  0  0  0  0
   90.7013  104.0349   21.9739 C   0  0  0  0  0  0  0  0  0  0  0  0
   90.9288  103.5848   20.6544 C   0  0  0  0  0  0  0  0  0  0  0  0
   91.5159  102.3437   20.4025 C   0  0  0  0  0  0  0  0  0  0  0  0
   91.8923  101.5257   21.4614 C   0  0  0  0  0  0  0  0  0  0  0  0
   91.6833  101.9514   22.7720 C   0  0  0  0  0  0  0  0  0  0  0  0
   91.0943  103.1953   23.0314 C   0  0  0  0  0  0  0  0  0  0  0  0
   90.8872  103.6238   24.6921 Cl  0  0  0  0  0  0  0  0  0  0  0  0
   87.6652  104.4657   22.5464 C   0  0  0  0  0  0  0  0  0  0  0  0
   87.0855  103.5126   22.0484 O   0  0  0  0  0  0  0  0  0  0  0  0
   87.5647  104.8725   23.8334 O   0  0  0  0  0  0  0  0  0  0  0  0
   87.5970  104.2755   26.1789 C   0  0  0  0  0  0  0  0  0  0  0  0
   87.1650  103.8732   24.7818 C   0  0  0  0  0  0  0  0  0  0  0  0
   92.2049  106.7132   21.9322 C   0  0  0  0  0  0  0  0  0  0  0  0
   93.1957  106.3644   21.3106 O   0  0  0  0  0  0  0  0  0  0  0  0
   92.1890  107.3980   23.1034 O   0  0  0  0  0  0  0  0  0  0  0  0
   92.9325  106.7676   24.1460 C   0  0  0  0  0  0  0  0  0  0  0  0
   86.6362  106.1612   20.3497 C   0  0  0  0  0  0  0  0  0  0  0  0
   86.5893  106.0907   18.9130 O   0  0  0  0  0  0  0  0  0  0  0  0
   85.8988  104.9281   18.4399 C   0  0  0  0  0  0  0  0  0  0  0  0
   85.0755  105.2080   17.1731 C   0  0  0  0  0  0  0  0  0  0  0  0
   84.2408  106.4055   17.3116 N   0  0  0  0  0  0  0  0  0  0  0  0
   84.8483  107.1751   17.6033 H   0  0  0  0  0  0  0  0  0  0  0  0
   83.5989  106.2756   18.0935 H   0  0  0  0  0  0  0  0  0  0  0  0
 19 20  1  0  0  0
 20 18  1  0  0  0
 18 16  1  0  0  0
 16 17  2  0  0  0
 16  1  1  0  0  0
  1  2  2  0  0  0
  2 25  1  0  0  0
 25 26  1  0  0  0
 26 27  1  0  0  0
 27 28  1  0  0  0
 28 29  1  0  0  0
  2  3  1  0  0  0
  3  4  1  0  0  0
  4  5  1  0  0  0
  4  6  2  0  0  0
  6 21  1  0  0  0
 21 22  2  0  0  0
 21 23  1  0  0  0
 23 24  1  0  0  0
  6  7  1  0  0  0
  7  9  1  0  0  0
  9 10  2  0  0  0
 10 11  1  0  0  0
 11 12  2  0  0  0
 12 13  1  0  0  0
 13 14  2  0  0  0
 14 15  1  0  0  0
  7  1  1  0  0  0
 14  9  1  0  0  0
 29 30  1  0  0  0
 29 31  1  0  0  0
  3  8  1  0  0  0
M  END
> <minimizedAffinity>
-6.19713

$$$$
decoy_albendazole


 20 21  0  0  0  0  0  0  0  0999 V2000
   85.0838  106.8065   15.8767 C   0  0  0  0  0  0  0  0  0  0  0  0
   85.5321  107.9622   16.5315 C   0  0  0  0  0  0  0  0  0  0  0  0
   85.9442  107.9377   17.8703 C   0  0  0  0  0  0  0  0  0  0  0  0
   85.8757  106.7052   18.5183 C   0  0  0  0  0  0  0  0  0  0  0  0
   86.1845  106.3110   19.7932 N   0  0  0  0  0  0  0  0  0  0  0  0
   85.9175  104.9698   19.9050 C   0  0  0  0  0  0  0  0  0  0  0  0
   85.4568  104.4797   18.7779 N   0  0  0  0  0  0  0  0  0  0  0  0
   85.4230  105.5424   17.9052 C   0  0  0  0  0  0  0  0  0  0  0  0
   85.0122  105.5866   16.5648 C   0  0  0  0  0  0  0  0  0  0  0  0
   86.5446  106.8863   20.5437 H   0  0  0  0  0  0  0  0  0  0  0  0
   86.1077  104.2419   21.0460 N   0  0  0  0  0  0  0  0  0  0  0  0
   85.5554  104.5741   22.2461 C   0  0  0  0  0  0  0  0  0  0  0  0
   84.8359  105.5415   22.4650 O   0  0  0  0  0  0  0  0  0  0  0  0
   86.6864  103.4183   20.9829 H   0  0  0  0  0  0  0  0  0  0  0  0
   85.9272  103.6595   23.1783 O   0  0  0  0  0  0  0  0  0  0  0  0
   84.9161  103.3615   24.1424 C   0  0  0  0  0  0  0  0  0  0  0  0
   84.5695  106.9352   14.1690 S   0  0  0  0  0  0  0  0  0  0  0  0
   85.5859  105.6225   13.4040 C   0  0  0  0  0  0  0  0  0  0  0  0
   85.4408  103.1219   13.6111 C   0  0  0  0  0  0  0  0  0  0  0  0
   84.7592  104.3780   13.0879 C   0  0  0  0  0  0  0  0  0  0  0  0
 19 20  1  0  0  0
 20 18  1  0  0  0
 18 17  1  0  0  0
 17  1  1  0  0  0
  1  2  2  0  0  0
  2  3  1  0  0  0
  3  4  2  0  0  0
  4  5  1  0  0  0
  5  6  1  0  0  0
  6 11  1  0  0  0
 11 12  1  0  0  0
 12 13  2  0  0  0
 12 15  1  0  0  0
 15 16  1  0  0  0
  6  7  2  0  0  0
  7  8  1  0  0  0
  8  9  2  0  0  0
  9  1  1  0  0  0
  8  4  1  0  0  0
  5 10  1  0  0  0
 11 14  1  0  0  0
M  END
> <minimizedAffinity>
-5.90817

$$$$
decoy_acetaminophen


 13 13  0  0  0  0  0  0  0  0999 V2000
   92.1905  103.9701   22.3869 C   0  0  0  0  0  0  0  0  0  0  0  0
   91.6903  102.8875   23.1236 C   0  0  0  0  0  0  0  0  0  0  0  0
   91.6435  101.6074   22.5658 C   0  0  0  0  0  0  0  0  0  0  0  0
   92.0966  101.4064   21.2697 C   0  0  0  0  0  0  0  0  0  0  0  0
   92.0345  100.1437   20.7617 O   0  0  0  0  0  0  0  0  0  0  0  0
   92.5956  102.4661   20.5224 C   0  0  0  0  0  0  0  0  0  0  0  0
   92.6414  103.7479   21.0832 C   0  0  0  0  0  0  0  0  0  0  0  0
   92.3841  100.1587   19.8554 H   0  0  0  0  0  0  0  0  0  0  0  0
   92.8789  107.1705   24.2625 C   0  0  0  0  0  0  0  0  0  0  0  0
   93.2455  105.8114   23.7194 C   0  0  0  0  0  0  0  0  0  0  0  0
   94.3521  105.3300   23.9332 O   0  0  0  0  0  0  0  0  0  0  0  0
   92.2025  105.2291   23.0220 N   0  0  0  0  0  0  0  0  0  0  0  0
   91.3426  105.7596   22.9635 H   0  0  0  0  0  0  0  0  0  0  0  0
  9 10  1  0  0  0
 10 11  2  0  0  0
 10 12  1  0  0  0
 12  1  1  0  0  0
  1  2  2  0  0  0
  2  3  1  0  0  0
  3  4  2  0  0  0
  4  5  1  0  0  0
  4  6  1  0  0  0
  6  7  2  0  0  0
  7  1  1  0  0  0
 12 13  1  0  0  0
  5  8  1  0  0  0
M  END
> <minimizedAffinity>
-5.31683

$$$$
