decoy_warfarin


 24 26  0  0  0  0  0  0  0  0999 V2000
    6.7194   12.2197    0.2727 C   0  0  0  0  0  0  0  0  0  0  0  0
    7.6143   13.0431   -0.3040 C   0  0  0  0  0  0  0  0  0  0  0  0
    8.6358   12.5381   -1.0865 O   0  0  0  0  0  0  0  0  0  0  0  0
    7.5221   14.4987   -0.1683 C   0  0  0  0  0  0  0  0  0  0  0  0
    8.4918   15.4017   -0.6254 C   0  0  0  0  0  0  0  0  0  0  0  0
    8.3107   16.7820   -0.4722 C   0  0  0  0  0  0  0  0  0  0  0  0
    7.1646   17.2767    0.1487 C   0  0  0  0  0  0  0  0  0  0  0  0
    6.2062   16.3916    0.6321 C   0  0  0  0  0  0  0  0  0  0  0  0
    6.4046   15.0198    0.4745 C   0  0  0  0  0  0  0  0  0  0  0  0
    5.4342   14.1734    1.0312 O   0  0  0  0  0  0  0  0  0  0  0  0
    5.5905   12.7943    1.0493 C   0  0  0  0  0  0  0  0  0  0  0  0
    4.8010   12.0964    1.6766 O   0  0  0  0  0  0  0  0  0  0  0  0
    8.8207   13.1700   -1.8017 H   0  0  0  0  0  0  0  0  0  0  0  0
    6.8112   10.6995    0.1431 C   0  0  0  0  0  0  0  0  0  0  0  0
    5.9933   10.1865   -1.0436 C   0  0  0  0  0  0  0  0  0  0  0  0
    6.3131   10.5015   -2.3732 C   0  0  0  0  0  0  0  0  0  0  0  0
    5.5436   10.0070   -3.4291 C   0  0  0  0  0  0  0  0  0  0  0  0
    4.4468    9.1883   -3.1732 C   0  0  0  0  0  0  0  0  0  0  0  0
    4.1194    8.8591   -1.8610 C   0  0  0  0  0  0  0  0  0  0  0  0
    4.8881    9.3512   -0.8048 C   0  0  0  0  0  0  0  0  0  0  0  0
    6.5485    9.9271    1.4508 C   0  0  0  0  0  0  0  0  0  0  0  0
    6.7118    7.4458    2.1556 C   0  0  0  0  0  0  0  0  0  0  0  0
    7.3427    8.6368    1.4833 C   0  0  0  0  0  0  0  0  0  0  0  0
    8.4522    8.5574    0.9539 O   0  0  0  0  0  0  0  0  0  0  0  0
 22 23  1  0  0  0
 23 24  2  0  0  0
 23 21  1  0  0  0
 21 14  1  0  0  0
 14 15  1  0  0  0
 15 16  2  0  0  0
 16 17  1  0  0  0
 17 18  2  0  0  0
 18 19  1  0  0  0
 19 20  2  0  0  0
 14  1  1  0  0  0
  1  2  2  0  0  0
  2  3  1  0  0  0
  2  4  1  0  0  0
  4  5  2  0  0  0
  5  6  1  0  0  0
  6  7  2  0  0  0
  7  8  1  0  0  0
  8  9  2  0  0  0
  9 10  1  0  0  0
 10 11  1  0  0  0
 11 12  2  0  0  0
 20 15  1  0  0  0
 11  1  1  0  0  0
  9  4  1  0  0  0
  3 13  1  0  0  0
M  END
> <minimizedAffinity>
-8.02578

$$$$
decoy_verapamil


 33 34  0  0  0  0  0  0  0  0999 V2000
   12.6725   16.0196    0.5315 C   0  0  0  0  0  0  0  0  0  0  0  0
   11.9064   17.0468   -0.3235 C   0  0  0  0  0  0  0  0  0  0  0  0
   11.3508   16.4492   -1.6291 C   0  0  0  0  0  0  0  0  0  0  0  0
    9.8939   16.2610   -1.6202 N   0  0  0  0  0  0  0  0  0  0  0  0
    9.2652   16.7788   -0.4075 C   0  0  0  0  0  0  0  0  0  0  0  0
    9.5090   14.8619   -1.8913 C   0  0  0  0  0  0  0  0  0  0  0  0
    8.4330   14.2474   -0.9770 C   0  0  0  0  0  0  0  0  0  0  0  0
    7.2866   10.2786   -2.2678 C   0  0  0  0  0  0  0  0  0  0  0  0
    7.4094   11.3183   -3.1949 C   0  0  0  0  0  0  0  0  0  0  0  0
    7.7826   12.5969   -2.7748 C   0  0  0  0  0  0  0  0  0  0  0  0
    8.0476   12.8551   -1.4258 C   0  0  0  0  0  0  0  0  0  0  0  0
    7.9254   11.8123   -0.4942 C   0  0  0  0  0  0  0  0  0  0  0  0
    7.5480   10.5268   -0.9052 C   0  0  0  0  0  0  0  0  0  0  0  0
    5.5726    8.7633   -2.9598 C   0  0  0  0  0  0  0  0  0  0  0  0
    6.9257    8.9931   -2.5895 O   0  0  0  0  0  0  0  0  0  0  0  0
    7.4062    9.4522   -0.0601 O   0  0  0  0  0  0  0  0  0  0  0  0
    6.5019    9.5831    1.0252 C   0  0  0  0  0  0  0  0  0  0  0  0
   14.0699   16.4582    1.1029 C   0  0  0  0  0  0  0  0  0  0  0  0
   13.9746   17.6470    2.1021 C   0  0  0  0  0  0  0  0  0  0  0  0
   15.0247   18.5782    2.2277 C   0  0  0  0  0  0  0  0  0  0  0  0
   14.9720   19.6336    3.1508 C   0  0  0  0  0  0  0  0  0  0  0  0
   13.8796   19.7791    4.0025 C   0  0  0  0  0  0  0  0  0  0  0  0
   12.8461   18.8365    3.9330 C   0  0  0  0  0  0  0  0  0  0  0  0
   12.8935   17.7939    2.9926 C   0  0  0  0  0  0  0  0  0  0  0  0
   13.7375   20.7735    4.9366 O   0  0  0  0  0  0  0  0  0  0  0  0
   13.9562   22.1091    4.5022 C   0  0  0  0  0  0  0  0  0  0  0  0
   11.7756   19.0036    4.7799 O   0  0  0  0  0  0  0  0  0  0  0  0
   10.5589   19.3481    4.1219 C   0  0  0  0  0  0  0  0  0  0  0  0
   14.8901   15.2007    1.6487 C   0  0  0  0  0  0  0  0  0  0  0  0
   14.3260   14.5490    2.9190 C   0  0  0  0  0  0  0  0  0  0  0  0
   15.0956   14.0746    0.6113 C   0  0  0  0  0  0  0  0  0  0  0  0
   14.8491   16.9926   -0.0677 C   0  0  0  0  0  0  0  0  0  0  0  0
   15.4519   17.3955   -0.9748 N   0  0  0  0  0  0  0  0  0  0  0  0
 14 15  1  0  0  0
 15  8  1  0  0  0
  8  9  2  0  0  0
  9 10  1  0  0  0
 10 11  2  0  0  0
 11  7  1  0  0  0
  7  6  1  0  0  0
  6  4  1  0  0  0
  4  5  1  0  0  0
  4  3  1  0  0  0
  3  2  1  0  0  0
  2  1  1  0  0  0
  1 18  1  0  0  0
 18 32  1  0  0  0
 32 33  3  0  0  0
 18 29  1  0  0  0
 29 30  1  0  0  0
 29 31  1  0  0  0
 18 19  1  0  0  0
 19 20  2  0  0  0
 20 21  1  0  0  0
 21 22  2  0  0  0
 22 25  1  0  0  0
 25 26  1  0  0  0
 22 23  1  0  0  0
 23 27  1  0  0  0
 27 28  1  0  0  0
 23 24  2  0  0  0
 11 12  1  0  0  0
 12 13  2  0  0  0
 13 16  1  0  0  0
 16 17  1  0  0  0
 13  8  1  0  0  0
 24 19  1  0  0  0
M  END
> <minimizedAffinity>
-6.52732

$$$$
decoy_trimethoprim


 25 26  0  0  0  0  0  0  0  0999 V2000
    6.8995   12.7444    1.3331 C   0  0  0  0  0  0  0  0  0  0  0  0
    6.4250   14.0926    0.8773 C   0  0  0  0  0  0  0  0  0  0  0  0
    7.3112   15.0181    0.3617 C   0  0  0  0  0  0  0  0  0  0  0  0
    6.9607   16.2509   -0.0463 N   0  0  0  0  0  0  0  0  0  0  0  0
    5.6711   16.5645    0.0762 C   0  0  0  0  0  0  0  0  0  0  0  0
    5.2864   17.8331   -0.3108 N   0  0  0  0  0  0  0  0  0  0  0  0
    4.7329   15.7605    0.5834 N   0  0  0  0  0  0  0  0  0  0  0  0
    5.1176   14.5338    0.9634 C   0  0  0  0  0  0  0  0  0  0  0  0
    4.0990   13.7366    1.4912 N   0  0  0  0  0  0  0  0  0  0  0  0
    6.0836   18.4528   -0.2582 H   0  0  0  0  0  0  0  0  0  0  0  0
    4.4581   18.1036    0.2009 H   0  0  0  0  0  0  0  0  0  0  0  0
    4.0147   12.8585    0.9896 H   0  0  0  0  0  0  0  0  0  0  0  0
    3.2396   14.2794    1.4139 H   0  0  0  0  0  0  0  0  0  0  0  0
    7.0775   10.6080   -1.8184 C   0  0  0  0  0  0  0  0  0  0  0  0
    7.3087   11.6331   -0.9019 C   0  0  0  0  0  0  0  0  0  0  0  0
    6.6485   11.6381    0.3333 C   0  0  0  0  0  0  0  0  0  0  0  0
    5.7435   10.6021    0.6317 C   0  0  0  0  0  0  0  0  0  0  0  0
    5.4910    9.5786   -0.2889 C   0  0  0  0  0  0  0  0  0  0  0  0
    6.1433    9.6057   -1.5317 C   0  0  0  0  0  0  0  0  0  0  0  0
    7.1564   11.6689   -3.8660 C   0  0  0  0  0  0  0  0  0  0  0  0
    7.7452   10.6861   -3.0134 O   0  0  0  0  0  0  0  0  0  0  0  0
    4.6171    8.5421   -0.0839 O   0  0  0  0  0  0  0  0  0  0  0  0
    5.0634    7.4736    0.7407 C   0  0  0  0  0  0  0  0  0  0  0  0
    5.8913    8.6135   -2.4496 O   0  0  0  0  0  0  0  0  0  0  0  0
    4.8629    9.0402   -3.3442 C   0  0  0  0  0  0  0  0  0  0  0  0
 20 21  1  0  0  0
 21 14  1  0  0  0
 14 15  2  0  0  0
 15 16  1  0  0  0
 16  1  1  0  0  0
  1  2  1  0  0  0
  2  3  2  0  0  0
  3  4  1  0  0  0
  4  5  2  0  0  0
  5  6  1  0  0  0
  5  7  1  0  0  0
  7  8  2  0  0  0
  8  9  1  0  0  0
 16 17  2  0  0  0
 17 18  1  0  0  0
 18 22  1  0  0  0
 22 23  1  0  0  0
 18 19  2  0  0  0
 19 24  1  0  0  0
 24 25  1  0  0  0
 19 14  1  0  0  0
  8  2  1  0  0  0
  6 10  1  0  0  0
  6 11  1  0  0  0
  9 12  1  0  0  0
  9 13  1  0  0  0
M  END
> <minimizedAffinity>
-7.11298

$$$$
decoy_tolbutamide


 20 20  0  0  0  0  0  0  0  0999 V2000
    6.0250   10.2899   -0.3481 N   0  0  0  0  0  0  0  0  0  0  0  0
    5.8255   11.3697    0.4629 C   0  0  0  0  0  0  0  0  0  0  0  0
    5.0737   11.3725    1.4227 O   0  0  0  0  0  0  0  0  0  0  0  0
    6.5844   12.4582    0.0751 N   0  0  0  0  0  0  0  0  0  0  0  0
    6.5507   10.4162   -1.1979 H   0  0  0  0  0  0  0  0  0  0  0  0
    7.2616   12.3973   -0.6711 H   0  0  0  0  0  0  0  0  0  0  0  0
    6.5589   13.9492    0.8056 S   0  0  0  0  0  0  0  0  0  0  0  0
    7.1259   13.8514    2.1316 O   0  0  0  0  0  0  0  0  0  0  0  0
    5.2048   14.4339    0.6193 O   0  0  0  0  0  0  0  0  0  0  0  0
    7.6184   14.9370   -0.2182 C   0  0  0  0  0  0  0  0  0  0  0  0
    7.4632   16.3243   -0.2426 C   0  0  0  0  0  0  0  0  0  0  0  0
    8.2774   17.0947   -1.0745 C   0  0  0  0  0  0  0  0  0  0  0  0
    9.2437   16.4852   -1.8863 C   0  0  0  0  0  0  0  0  0  0  0  0
   10.0912   17.3148   -2.8058 C   0  0  0  0  0  0  0  0  0  0  0  0
    9.3667   15.0890   -1.8765 C   0  0  0  0  0  0  0  0  0  0  0  0
    8.5570   14.3130   -1.0447 C   0  0  0  0  0  0  0  0  0  0  0  0
    5.2706    9.0650   -0.1832 C   0  0  0  0  0  0  0  0  0  0  0  0
    4.4869    8.7126   -1.4458 C   0  0  0  0  0  0  0  0  0  0  0  0
    4.9586    9.5592   -3.7713 C   0  0  0  0  0  0  0  0  0  0  0  0
    5.4063    8.6206   -2.6623 C   0  0  0  0  0  0  0  0  0  0  0  0
 19 20  1  0  0  0
 20 18  1  0  0  0
 18 17  1  0  0  0
 17  1  1  0  0  0
  1  2  1  0  0  0
  2  3  2  0  0  0
  2  4  1  0  0  0
  4  7  1  0  0  0
  7  8  2  0  0  0
  7  9  2  0  0  0
  7 10  1  0  0  0
 10 11  2  0  0  0
 11 12  1  0  0  0
 12 13  2  0  0  0
 13 14  1  0  0  0
 13 15  1  0  0  0
 15 16  2  0  0  0
 16 10  1  0  0  0
  1  5  1  0  0  0
  4  6  1  0  0  0
M  END
> <minimizedAffinity>
-5.75811

$$$$
decoy_theophylline


 14 15  0  0  0  0  0  0  0  0999 V2000
    4.7857    8.3089   -0.4244 C   0  0  0  0  0  0  0  0  0  0  0  0
    5.4324    9.2121   -1.3555 N   0  0  0  0  0  0  0  0  0  0  0  0
    4.8194    9.4333   -2.5912 C   0  0  0  0  0  0  0  0  0  0  0  0
    3.7673    8.9216   -2.9599 O   0  0  0  0  0  0  0  0  0  0  0  0
    5.5490   10.3329   -3.4073 C   0  0  0  0  0  0  0  0  0  0  0  0
    5.2939   10.8017   -4.6623 N   0  0  0  0  0  0  0  0  0  0  0  0
    6.3243   11.6484   -4.9811 C   0  0  0  0  0  0  0  0  0  0  0  0
    7.2051   11.7365   -4.0037 N   0  0  0  0  0  0  0  0  0  0  0  0
    6.7166   10.9176   -3.0314 C   0  0  0  0  0  0  0  0  0  0  0  0
    7.2826   10.6698   -1.8046 N   0  0  0  0  0  0  0  0  0  0  0  0
    8.5310   11.3118   -1.4362 C   0  0  0  0  0  0  0  0  0  0  0  0
    6.6431    9.7960   -0.9218 C   0  0  0  0  0  0  0  0  0  0  0  0
    7.1079    9.5381    0.1925 O   0  0  0  0  0  0  0  0  0  0  0  0
    4.4969   10.5659   -5.2399 H   0  0  0  0  0  0  0  0  0  0  0  0
  1  2  1  0  0  0
  2  3  1  0  0  0
  3  4  2  0  0  0
  3  5  1  0  0  0
  5  6  1  0  0  0
  6  7  1  0  0  0
  7  8  2  0  0  0
  8  9  1  0  0  0
  9 10  1  0  0  0
 10 11  1  0  0  0
 10 12  1  0  0  0
 12 13  2  0  0  0
 12  2  1  0  0  0
  9  5  2  0  0  0
  6 14  1  0  0  0
M  END
> <minimizedAffinity>
-5.85626

$$$$
decoy_sertraline


 21 23  0  0  0  0  0  0  0  0999 V2000
    6.0683    9.1373   -0.9220 C   0  0  0  0  0  0  0  0  0  0  0  0
    6.9185    9.8072    0.1730 C   0  0  0  0  0  0  0  0  0  0  0  0
    8.2375   10.3203   -0.3926 C   0  0  0  0  0  0  0  0  0  0  0  0
    8.0111   11.4007   -1.4628 C   0  0  0  0  0  0  0  0  0  0  0  0
    6.9634   10.9778   -2.4819 C   0  0  0  0  0  0  0  0  0  0  0  0
    6.9157   11.6536   -3.7174 C   0  0  0  0  0  0  0  0  0  0  0  0
    5.9796   11.3065   -4.6891 C   0  0  0  0  0  0  0  0  0  0  0  0
    5.0816   10.2752   -4.4448 C   0  0  0  0  0  0  0  0  0  0  0  0
    5.1168    9.5968   -3.2264 C   0  0  0  0  0  0  0  0  0  0  0  0
    6.0395    9.9436   -2.2195 C   0  0  0  0  0  0  0  0  0  0  0  0
    7.7548   12.7673   -0.8258 C   0  0  0  0  0  0  0  0  0  0  0  0
    6.9293   12.9368    0.2963 C   0  0  0  0  0  0  0  0  0  0  0  0
    6.7341   14.2024    0.8569 C   0  0  0  0  0  0  0  0  0  0  0  0
    7.3649   15.3212    0.3094 C   0  0  0  0  0  0  0  0  0  0  0  0
    7.0791   16.8529    1.0552 Cl  0  0  0  0  0  0  0  0  0  0  0  0
    8.1954   15.1707   -0.8040 C   0  0  0  0  0  0  0  0  0  0  0  0
    9.0153   16.5042   -1.5364 Cl  0  0  0  0  0  0  0  0  0  0  0  0
    8.3883   13.9021   -1.3642 C   0  0  0  0  0  0  0  0  0  0  0  0
    4.4226    7.4792   -0.1860 C   0  0  0  0  0  0  0  0  0  0  0  0
    4.7015    8.8834   -0.4382 N   0  0  0  0  0  0  0  0  0  0  0  0
    4.5334    9.4322    0.4033 H   0  0  0  0  0  0  0  0  0  0  0  0
 19 20  1  0  0  0
 20  1  1  0  0  0
  1  2  1  0  0  0
  2  3  1  0  0  0
  3  4  1  0  0  0
  4 11  1  0  0  0
 11 12  2  0  0  0
 12 13  1  0  0  0
 13 14  2  0  0  0
 14 15  1  0  0  0
 14 16  1  0  0  0
 16 17  1  0  0  0
 16 18  2  0  0  0
  4  5  1  0  0  0
  5  6  2  0  0  0
  6  7  1  0  0  0
  7  8  2  0  0  0
  8  9  1  0  0  0
  9 10  2  0  0  0
 10  1  1  0  0  0
 18 11  1  0  0  0
 10  5  1  0  0  0
 20 21  1  0  0  0
M  END
> <minimizedAffinity>
-8.46819

$$$$
decoy_salbutamol


 21 21  0  0  0  0  0  0  0  0999 V2000
    5.9892    9.5520   -0.9870 C   0  0  0  0  0  0  0  0  0  0  0  0
    4.7783    8.9039   -1.2609 C   0  0  0  0  0  0  0  0  0  0  0  0
    4.1803    9.0322   -2.5123 C   0  0  0  0  0  0  0  0  0  0  0  0
    4.7825    9.8082   -3.5021 C   0  0  0  0  0  0  0  0  0  0  0  0
    4.1039    9.8703   -4.6876 O   0  0  0  0  0  0  0  0  0  0  0  0
    5.9982   10.4667   -3.2693 C   0  0  0  0  0  0  0  0  0  0  0  0
    6.5838   10.3291   -1.9959 C   0  0  0  0  0  0  0  0  0  0  0  0
    4.5372   10.4860   -5.2952 H   0  0  0  0  0  0  0  0  0  0  0  0
    6.6516    9.4304    0.3746 C   0  0  0  0  0  0  0  0  0  0  0  0
    5.9691    8.4026    1.1007 O   0  0  0  0  0  0  0  0  0  0  0  0
    5.8247    7.6726    0.4744 H   0  0  0  0  0  0  0  0  0  0  0  0
    6.6112   10.7690    1.1548 C   0  0  0  0  0  0  0  0  0  0  0  0
    5.3587   11.5523    1.1108 N   0  0  0  0  0  0  0  0  0  0  0  0
    4.6290   10.9532    1.4995 H   0  0  0  0  0  0  0  0  0  0  0  0
    6.3644   12.7657    2.9371 C   0  0  0  0  0  0  0  0  0  0  0  0
    5.3085   12.8527    1.8088 C   0  0  0  0  0  0  0  0  0  0  0  0
    5.6728   14.0537    0.9224 C   0  0  0  0  0  0  0  0  0  0  0  0
    3.9465   13.0717    2.4857 C   0  0  0  0  0  0  0  0  0  0  0  0
    6.6589   11.3057   -4.3345 C   0  0  0  0  0  0  0  0  0  0  0  0
    5.7587   12.2128   -4.9577 O   0  0  0  0  0  0  0  0  0  0  0  0
    6.2674   12.7039   -5.6243 H   0  0  0  0  0  0  0  0  0  0  0  0
 15 16  1  0  0  0
 16 17  1  0  0  0
 16 18  1  0  0  0
 16 13  1  0  0  0
 13 12  1  0  0  0
 12  9  1  0  0  0
  9 10  1  0  0  0
  9  1  1  0  0  0
  1  2  2  0  0  0
  2  3  1  0  0  0
  3  4  2  0  0  0
  4  5  1  0  0  0
  4  6  1  0  0  0
  6 19  1  0  0  0
 19 20  1  0  0  0
  6  7  2  0  0  0
  7  1  1  0  0  0
 13 14  1  0  0  0
 10 11  1  0  0  0
  5  8  1  0  0  0
 20 21  1  0  0  0
M  END
> <minimizedAffinity>
-7.27355

$$$$
decoy_pyrimethamine


 21 22  0  0  0  0  0  0  0  0999 V2000
    4.8687    8.7605   -0.8404 C   0  0  0  0  0  0  0  0  0  0  0  0
    4.1916    7.6310   -0.5283 N   0  0  0  0  0  0  0  0  0  0  0  0
    4.5938    6.9434    0.5398 C   0  0  0  0  0  0  0  0  0  0  0  0
    3.9153    5.7796    0.8363 N   0  0  0  0  0  0  0  0  0  0  0  0
    5.6267    7.2704    1.3125 N   0  0  0  0  0  0  0  0  0  0  0  0
    6.2755    8.4031    1.0068 C   0  0  0  0  0  0  0  0  0  0  0  0
    7.3635    8.6936    1.8385 N   0  0  0  0  0  0  0  0  0  0  0  0
    5.9438    9.2172   -0.0774 C   0  0  0  0  0  0  0  0  0  0  0  0
    4.5267    5.1494    1.3355 H   0  0  0  0  0  0  0  0  0  0  0  0
    3.4707    5.4281   -0.0002 H   0  0  0  0  0  0  0  0  0  0  0  0
    7.3639    8.0100    2.5911 H   0  0  0  0  0  0  0  0  0  0  0  0
    7.3323    9.6471    2.1819 H   0  0  0  0  0  0  0  0  0  0  0  0
    6.6770   10.4547   -0.3823 C   0  0  0  0  0  0  0  0  0  0  0  0
    6.3644   11.6570    0.2746 C   0  0  0  0  0  0  0  0  0  0  0  0
    7.0617   12.8331   -0.0162 C   0  0  0  0  0  0  0  0  0  0  0  0
    8.0816   12.8166   -0.9644 C   0  0  0  0  0  0  0  0  0  0  0  0
    8.9402   14.2636   -1.3215 Cl  0  0  0  0  0  0  0  0  0  0  0  0
    8.4116   11.6349   -1.6226 C   0  0  0  0  0  0  0  0  0  0  0  0
    7.7128   10.4601   -1.3314 C   0  0  0  0  0  0  0  0  0  0  0  0
    5.0191    9.0773   -3.3779 C   0  0  0  0  0  0  0  0  0  0  0  0
    4.3940    9.5242   -2.0607 C   0  0  0  0  0  0  0  0  0  0  0  0
 20 21  1  0  0  0
 21  1  1  0  0  0
  1  2  2  0  0  0
  2  3  1  0  0  0
  3  4  1  0  0  0
  3  5  2  0  0  0
  5  6  1  0  0  0
  6  7  1  0  0  0
  6  8  2  0  0  0
  8 13  1  0  0  0
 13 14  2  0  0  0
 14 15  1  0  0  0
 15 16  2  0  0  0
 16 17  1  0  0  0
 16 18  1  0  0  0
 18 19  2  0  0  0
  8  1  1  0  0  0
 19 13  1  0  0  0
  4  9  1  0  0  0
  4 10  1  0  0  0
  7 11  1  0  0  0
  7 12  1  0  0  0
M  END
> <minimizedAffinity>
-8.00242

$$$$
decoy_propranolol


 21 22  0  0  0  0  0  0  0  0999 V2000
    6.8691    9.6913   -1.4253 O   0  0  0  0  0  0  0  0  0  0  0  0
    7.3296   10.9861   -1.3877 C   0  0  0  0  0  0  0  0  0  0  0  0
    8.1528   11.5468   -2.3701 C   0  0  0  0  0  0  0  0  0  0  0  0
    8.5693   12.8726   -2.2658 C   0  0  0  0  0  0  0  0  0  0  0  0
    8.1635   13.6502   -1.1837 C   0  0  0  0  0  0  0  0  0  0  0  0
    7.3315   13.1165   -0.1897 C   0  0  0  0  0  0  0  0  0  0  0  0
    6.9212   13.9064    0.8975 C   0  0  0  0  0  0  0  0  0  0  0  0
    6.0934   13.3844    1.8911 C   0  0  0  0  0  0  0  0  0  0  0  0
    5.6650   12.0653    1.8110 C   0  0  0  0  0  0  0  0  0  0  0  0
    6.0645   11.2684    0.7363 C   0  0  0  0  0  0  0  0  0  0  0  0
    6.9018   11.7700   -0.2850 C   0  0  0  0  0  0  0  0  0  0  0  0
    6.1049    9.2950   -2.5685 C   0  0  0  0  0  0  0  0  0  0  0  0
    4.9330    8.4216   -2.0988 C   0  0  0  0  0  0  0  0  0  0  0  0
    3.6921    9.0269   -2.4979 O   0  0  0  0  0  0  0  0  0  0  0  0
    3.6913    9.9209   -2.1046 H   0  0  0  0  0  0  0  0  0  0  0  0
    4.9334    8.2186   -0.5667 C   0  0  0  0  0  0  0  0  0  0  0  0
    3.8369    7.3486   -0.1188 N   0  0  0  0  0  0  0  0  0  0  0  0
    3.3749    6.9557   -0.9444 H   0  0  0  0  0  0  0  0  0  0  0  0
    3.1205    5.8744    1.7706 C   0  0  0  0  0  0  0  0  0  0  0  0
    4.2342    6.2879    0.8089 C   0  0  0  0  0  0  0  0  0  0  0  0
    5.4419    6.7922    1.6024 C   0  0  0  0  0  0  0  0  0  0  0  0
 19 20  1  0  0  0
 20 21  1  0  0  0
 20 17  1  0  0  0
 17 16  1  0  0  0
 16 13  1  0  0  0
 13 14  1  0  0  0
 13 12  1  0  0  0
 12  1  1  0  0  0
  1  2  1  0  0  0
  2  3  2  0  0  0
  3  4  1  0  0  0
  4  5  2  0  0  0
  5  6  1  0  0  0
  6  7  2  0  0  0
  7  8  1  0  0  0
  8  9  2  0  0  0
  9 10  1  0  0  0
 10 11  2  0  0  0
 11  2  1  0  0  0
 11  6  1  0  0  0
 17 18  1  0  0  0
 14 15  1  0  0  0
M  END
> <minimizedAffinity>
-7.99411

$$$$
decoy_procainamide


 20 20  0  0  0  0  0  0  0  0999 V2000
    4.8657    9.2159   -0.8372 N   0  0  0  0  0  0  0  0  0  0  0  0
    5.8667    9.4076   -1.7668 C   0  0  0  0  0  0  0  0  0  0  0  0
    6.1238    8.6114   -2.6618 O   0  0  0  0  0  0  0  0  0  0  0  0
    4.8566    9.7915   -0.0067 H   0  0  0  0  0  0  0  0  0  0  0  0
    6.6753   10.6487   -1.6174 C   0  0  0  0  0  0  0  0  0  0  0  0
    6.7596   11.3405   -0.4045 C   0  0  0  0  0  0  0  0  0  0  0  0
    7.5339   12.5029   -0.3157 C   0  0  0  0  0  0  0  0  0  0  0  0
    8.1903   13.0146   -1.4387 C   0  0  0  0  0  0  0  0  0  0  0  0
    9.0579   14.1041   -1.3111 N   0  0  0  0  0  0  0  0  0  0  0  0
    8.1364   12.2941   -2.6343 C   0  0  0  0  0  0  0  0  0  0  0  0
    7.3631   11.1336   -2.7342 C   0  0  0  0  0  0  0  0  0  0  0  0
    9.2419   14.5875   -2.1851 H   0  0  0  0  0  0  0  0  0  0  0  0
    8.8109   14.7449   -0.5636 H   0  0  0  0  0  0  0  0  0  0  0  0
    4.0756    7.9945   -0.8132 C   0  0  0  0  0  0  0  0  0  0  0  0
    4.7790    6.8426   -0.0675 C   0  0  0  0  0  0  0  0  0  0  0  0
    4.7157    6.9667    1.3959 N   0  0  0  0  0  0  0  0  0  0  0  0
    2.5495    5.6179    1.1973 C   0  0  0  0  0  0  0  0  0  0  0  0
    3.6535    6.2135    2.0676 C   0  0  0  0  0  0  0  0  0  0  0  0
    6.0302    6.8774    2.0400 C   0  0  0  0  0  0  0  0  0  0  0  0
    6.9665    8.0655    1.8613 C   0  0  0  0  0  0  0  0  0  0  0  0
 17 18  1  0  0  0
 18 16  1  0  0  0
 16 19  1  0  0  0
 19 20  1  0  0  0
 16 15  1  0  0  0
 15 14  1  0  0  0
 14  1  1  0  0  0
  1  2  1  0  0  0
  2  3  2  0  0  0
  2  5  1  0  0  0
  5  6  2  0  0  0
  6  7  1  0  0  0
  7  8  2  0  0  0
  8  9  1  0  0  0
  8 10  1  0  0  0
 10 11  2  0  0  0
 11  5  1  0  0  0
  1  4  1  0  0  0
  9 12  1  0  0  0
  9 13  1  0  0  0
M  END
> <minimizedAffinity>
-6.00263

$$$$
decoy_phenytoin


 21 23  0  0  0  0  0  0  0  0999 V2000
    4.6002    7.5451    0.9487 O   0  0  0  0  0  0  0  0  0  0  0  0
    5.3802    8.4009    0.5719 C   0  0  0  0  0  0  0  0  0  0  0  0
    6.7244    8.3378    0.6454 N   0  0  0  0  0  0  0  0  0  0  0  0
    7.2881    9.4038    0.0125 C   0  0  0  0  0  0  0  0  0  0  0  0
    8.4972    9.5381   -0.1335 O   0  0  0  0  0  0  0  0  0  0  0  0
    6.1577   10.3611   -0.4850 C   0  0  0  0  0  0  0  0  0  0  0  0
    5.0207    9.5793   -0.0210 N   0  0  0  0  0  0  0  0  0  0  0  0
    7.2346    7.5540    1.0128 H   0  0  0  0  0  0  0  0  0  0  0  0
    4.0622    9.7548   -0.2834 H   0  0  0  0  0  0  0  0  0  0  0  0
    6.0500   10.4973   -2.0110 C   0  0  0  0  0  0  0  0  0  0  0  0
    5.0273    9.8067   -2.6962 C   0  0  0  0  0  0  0  0  0  0  0  0
    4.9002    9.8908   -4.0842 C   0  0  0  0  0  0  0  0  0  0  0  0
    5.7930   10.6642   -4.8182 C   0  0  0  0  0  0  0  0  0  0  0  0
    6.8104   11.3539   -4.1650 C   0  0  0  0  0  0  0  0  0  0  0  0
    6.9397   11.2718   -2.7751 C   0  0  0  0  0  0  0  0  0  0  0  0
    6.2776   11.7135    0.2323 C   0  0  0  0  0  0  0  0  0  0  0  0
    7.2107   12.6944   -0.1511 C   0  0  0  0  0  0  0  0  0  0  0  0
    7.2904   13.9138    0.5270 C   0  0  0  0  0  0  0  0  0  0  0  0
    6.4399   14.1772    1.5972 C   0  0  0  0  0  0  0  0  0  0  0  0
    5.5056   13.2239    1.9903 C   0  0  0  0  0  0  0  0  0  0  0  0
    5.4237   12.0049    1.3145 C   0  0  0  0  0  0  0  0  0  0  0  0
  1  2  2  0  0  0
  2  3  1  0  0  0
  3  4  1  0  0  0
  4  5  2  0  0  0
  4  6  1  0  0  0
  6 10  1  0  0  0
 10 11  2  0  0  0
 11 12  1  0  0  0
 12 13  2  0  0  0
 13 14  1  0  0  0
 14 15  2  0  0  0
  6 16  1  0  0  0
 16 17  2  0  0  0
 17 18  1  0  0  0
 18 19  2  0  0  0
 19 20  1  0  0  0
 20 21  2  0  0  0
  6  7  1  0  0  0
  7  2  1  0  0  0
 15 10  1  0  0  0
 21 16  1  0  0  0
  3  8  1  0  0  0
  7  9  1  0  0  0
M  END
> <minimizedAffinity>
-7.63038

$$$$
decoy_omeprazole


 25 27  0  0  0  0  0  0  0  0999 V2000
    5.0613   12.6962    1.9517 S   0  0  0  0  0  0  0  0  0  0  0  0
    5.0415   12.8943    3.4411 O   0  0  0  0  0  0  0  0  0  0  0  0
    6.3386   18.3496   -0.5120 C   0  0  0  0  0  0  0  0  0  0  0  0
    7.6472   18.0671   -0.0989 C   0  0  0  0  0  0  0  0  0  0  0  0
    7.9666   16.8618    0.5425 C   0  0  0  0  0  0  0  0  0  0  0  0
    6.9204   15.9655    0.7557 C   0  0  0  0  0  0  0  0  0  0  0  0
    6.8676   14.7245    1.3327 N   0  0  0  0  0  0  0  0  0  0  0  0
    5.5705   14.2928    1.2892 C   0  0  0  0  0  0  0  0  0  0  0  0
    4.7830   15.1696    0.7043 N   0  0  0  0  0  0  0  0  0  0  0  0
    5.6090   16.2159    0.3638 C   0  0  0  0  0  0  0  0  0  0  0  0
    5.3104   17.4219   -0.2845 C   0  0  0  0  0  0  0  0  0  0  0  0
    7.6354   14.1930    1.7202 H   0  0  0  0  0  0  0  0  0  0  0  0
    4.6282   19.4867   -1.7161 C   0  0  0  0  0  0  0  0  0  0  0  0
    5.9301   19.4935   -1.1470 O   0  0  0  0  0  0  0  0  0  0  0  0
    6.5589   11.7767    1.4741 C   0  0  0  0  0  0  0  0  0  0  0  0
    6.3501   10.9783    0.2092 C   0  0  0  0  0  0  0  0  0  0  0  0
    5.3390   10.0689    0.2520 N   0  0  0  0  0  0  0  0  0  0  0  0
    5.1188    9.3047   -0.8390 C   0  0  0  0  0  0  0  0  0  0  0  0
    5.8210    9.4199   -2.0252 C   0  0  0  0  0  0  0  0  0  0  0  0
    5.5094    8.5058   -3.1681 C   0  0  0  0  0  0  0  0  0  0  0  0
    6.7721   10.4413   -2.0897 C   0  0  0  0  0  0  0  0  0  0  0  0
    7.0867   11.2178   -0.9611 C   0  0  0  0  0  0  0  0  0  0  0  0
    8.1751   12.2537   -1.0075 C   0  0  0  0  0  0  0  0  0  0  0  0
    7.4572   10.6476   -3.2638 O   0  0  0  0  0  0  0  0  0  0  0  0
    6.7239   11.5453   -4.1032 C   0  0  0  0  0  0  0  0  0  0  0  0
 13 14  1  0  0  0
 14  3  1  0  0  0
  3  4  2  0  0  0
  4  5  1  0  0  0
  5  6  2  0  0  0
  6  7  1  0  0  0
  7  8  1  0  0  0
  8  1  1  0  0  0
  1  2  2  0  0  0
  1 15  1  0  0  0
 15 16  1  0  0  0
 16 17  2  0  0  0
 17 18  1  0  0  0
 18 19  2  0  0  0
 19 20  1  0  0  0
 19 21  1  0  0  0
 21 24  1  0  0  0
 24 25  1  0  0  0
 21 22  2  0  0  0
 22 23  1  0  0  0
  8  9  2  0  0  0
  9 10  1  0  0  0
 10 11  2  0  0  0
 11  3  1  0  0  0
 10  6  1  0  0  0
 22 16  1  0  0  0
  7 12  1  0  0  0
M  END
> <minimizedAffinity>
-7.22629

$$$$
decoy_nicotine


 12 13  0  0  0  0  0  0  0  0999 V2000
    6.7580   12.1914    1.3000 C   0  0  0  0  0  0  0  0  0  0  0  0
    6.9068   12.2996   -0.1460 N   0  0  0  0  0  0  0  0  0  0  0  0
    7.9077   13.2971   -0.5228 C   0  0  0  0  0  0  0  0  0  0  0  0
    8.1095   12.9985   -1.9951 C   0  0  0  0  0  0  0  0  0  0  0  0
    8.0194   11.4802   -2.0827 C   0  0  0  0  0  0  0  0  0  0  0  0
    7.3386   11.0379   -0.7763 C   0  0  0  0  0  0  0  0  0  0  0  0
    6.2103   10.0691   -1.0259 C   0  0  0  0  0  0  0  0  0  0  0  0
    5.5998    9.9824   -2.2818 C   0  0  0  0  0  0  0  0  0  0  0  0
    4.5425    9.0984   -2.4806 C   0  0  0  0  0  0  0  0  0  0  0  0
    4.1205    8.3280   -1.4104 C   0  0  0  0  0  0  0  0  0  0  0  0
    4.6750    8.3837   -0.1823 N   0  0  0  0  0  0  0  0  0  0  0  0
    5.7046    9.2489   -0.0196 C   0  0  0  0  0  0  0  0  0  0  0  0
  1  2  1  0  0  0
  2  3  1  0  0  0
  3  4  1  0  0  0
  4  5  1  0  0  0
  5  6  1  0  0  0
  6  7  1  0  0  0
  7  8  2  0  0  0
  8  9  1  0  0  0
  9 10  2  0  0  0
 10 11  1  0  0  0
 11 12  2  0  0  0
  6  2  1  0  0  0
 12  7  1  0  0  0
M  END
> <minimizedAffinity>
-6.03536

$$$$
decoy_naproxen


 18 19  0  0  0  0  0  0  0  0999 V2000
    7.0071   11.5321   -2.9956 C   0  0  0  0  0  0  0  0  0  0  0  0
    7.7012   11.7384   -1.8058 C   0  0  0  0  0  0  0  0  0  0  0  0
    7.4418   10.9310   -0.6926 C   0  0  0  0  0  0  0  0  0  0  0  0
    6.4850    9.9058   -0.7506 C   0  0  0  0  0  0  0  0  0  0  0  0
    6.2145    9.0877    0.3605 C   0  0  0  0  0  0  0  0  0  0  0  0
    5.2557    8.0634    0.2979 C   0  0  0  0  0  0  0  0  0  0  0  0
    4.5662    7.8631   -0.9051 C   0  0  0  0  0  0  0  0  0  0  0  0
    4.8254    8.6688   -2.0164 C   0  0  0  0  0  0  0  0  0  0  0  0
    5.7806    9.6938   -1.9539 C   0  0  0  0  0  0  0  0  0  0  0  0
    6.0528   10.5127   -3.0625 C   0  0  0  0  0  0  0  0  0  0  0  0
    6.3619   11.8564   -5.2610 C   0  0  0  0  0  0  0  0  0  0  0  0
    7.1628   12.2457   -4.1525 O   0  0  0  0  0  0  0  0  0  0  0  0
    4.9886    7.1983    1.5164 C   0  0  0  0  0  0  0  0  0  0  0  0
    4.0629    6.0238    1.1920 C   0  0  0  0  0  0  0  0  0  0  0  0
    6.2764    6.6974    2.1438 C   0  0  0  0  0  0  0  0  0  0  0  0
    6.9998    5.8060    1.7282 O   0  0  0  0  0  0  0  0  0  0  0  0
    6.6032    7.3661    3.2701 O   0  0  0  0  0  0  0  0  0  0  0  0
    7.4623    6.9764    3.5358 H   0  0  0  0  0  0  0  0  0  0  0  0
 11 12  1  0  0  0
 12  1  1  0  0  0
  1  2  2  0  0  0
  2  3  1  0  0  0
  3  4  2  0  0  0
  4  5  1  0  0  0
  5  6  2  0  0  0
  6 13  1  0  0  0
 13 14  1  0  0  0
 13 15  1  0  0  0
 15 16  2  0  0  0
 15 17  1  0  0  0
  6  7  1  0  0  0
  7  8  2  0  0  0
  8  9  1  0  0  0
  9 10  2  0  0  0
 10  1  1  0  0  0
  9  4  1  0  0  0
 17 18  1  0  0  0
M  END
> <minimizedAffinity>
-7.01899

$$$$
decoy_metronidazole


 13 13  0  0  0  0  0  0  0  0999 V2000
    5.3645   10.2256   -4.0964 C   0  0  0  0  0  0  0  0  0  0  0  0
    6.2289   10.2794   -2.8879 C   0  0  0  0  0  0  0  0  0  0  0  0
    7.4976   10.6436   -2.8856 N   0  0  0  0  0  0  0  0  0  0  0  0
    7.9187   10.5455   -1.5857 C   0  0  0  0  0  0  0  0  0  0  0  0
    6.8841   10.1386   -0.7854 C   0  0  0  0  0  0  0  0  0  0  0  0
    5.8087    9.9358   -1.6113 N   0  0  0  0  0  0  0  0  0  0  0  0
    6.9038    9.9348    0.6189 N   0  0  0  0  0  0  0  0  0  0  0  0
    7.1784    8.8007    1.0273 O   0  0  0  0  0  0  0  0  0  0  0  0
    6.5774   10.9006    1.3192 O   0  0  0  0  0  0  0  0  0  0  0  0
    4.5028    9.3844   -1.2834 C   0  0  0  0  0  0  0  0  0  0  0  0
    4.5540    7.8737   -1.0710 C   0  0  0  0  0  0  0  0  0  0  0  0
    4.3962    7.5648    0.3078 O   0  0  0  0  0  0  0  0  0  0  0  0
    4.4061    6.5950    0.3977 H   0  0  0  0  0  0  0  0  0  0  0  0
  1  2  1  0  0  0
  2  3  2  0  0  0
  3  4  1  0  0  0
  4  5  2  0  0  0
  5  7  1  0  0  0
  7  8  2  0  0  0
  7  9  1  0  0  0
  5  6  1  0  0  0
  6 10  1  0  0  0
 10 11  1  0  0  0
 11 12  1  0  0  0
  6  2  1  0  0  0
 12 13  1  0  0  0
M  CHG 1   7   1
M  CHG 1   9  -1
M  END
> <minimizedAffinity>
-5.35432

$$$$
decoy_metoprolol


 21 21  0  0  0  0  0  0  0  0999 V2000
    7.0286    9.2546   -1.8535 O   0  0  0  0  0  0  0  0  0  0  0  0
    8.1254   13.2524   -1.3178 C   0  0  0  0  0  0  0  0  0  0  0  0
    7.6097   12.5423   -0.2263 C   0  0  0  0  0  0  0  0  0  0  0  0
    7.2286   11.2018   -0.3605 C   0  0  0  0  0  0  0  0  0  0  0  0
    7.3623   10.5537   -1.5878 C   0  0  0  0  0  0  0  0  0  0  0  0
    7.8763   11.2584   -2.6776 C   0  0  0  0  0  0  0  0  0  0  0  0
    8.2564   12.5958   -2.5462 C   0  0  0  0  0  0  0  0  0  0  0  0
    8.5425   14.6985   -1.1718 C   0  0  0  0  0  0  0  0  0  0  0  0
    7.6463   15.4797   -0.2085 C   0  0  0  0  0  0  0  0  0  0  0  0
    5.5033   16.4480   -0.0237 C   0  0  0  0  0  0  0  0  0  0  0  0
    6.5196   16.0071   -0.9139 O   0  0  0  0  0  0  0  0  0  0  0  0
    5.8982    9.0334   -2.7032 C   0  0  0  0  0  0  0  0  0  0  0  0
    4.6224    9.0940   -1.8512 C   0  0  0  0  0  0  0  0  0  0  0  0
    3.4701    9.0847   -2.7107 O   0  0  0  0  0  0  0  0  0  0  0  0
    3.5822    8.3130   -3.2990 H   0  0  0  0  0  0  0  0  0  0  0  0
    4.5246    7.9106   -0.8634 C   0  0  0  0  0  0  0  0  0  0  0  0
    5.3545    8.1053    0.3392 N   0  0  0  0  0  0  0  0  0  0  0  0
    6.3284    7.9943    0.0378 H   0  0  0  0  0  0  0  0  0  0  0  0
    5.0793    7.1489    1.4186 C   0  0  0  0  0  0  0  0  0  0  0  0
    4.3364    5.9485    0.8243 C   0  0  0  0  0  0  0  0  0  0  0  0
    6.3728    6.6708    2.0808 C   0  0  0  0  0  0  0  0  0  0  0  0
 10 11  1  0  0  0
 11  9  1  0  0  0
  9  8  1  0  0  0
  8  2  1  0  0  0
  2  3  2  0  0  0
  3  4  1  0  0  0
  4  5  2  0  0  0
  5  1  1  0  0  0
  1 12  1  0  0  0
 12 13  1  0  0  0
 13 14  1  0  0  0
 13 16  1  0  0  0
 16 17  1  0  0  0
 17 19  1  0  0  0
 19 20  1  0  0  0
 19 21  1  0  0  0
  5  6  1  0  0  0
  6  7  2  0  0  0
  7  2  1  0  0  0
 14 15  1  0  0  0
 17 18  1  0  0  0
M  END
> <minimizedAffinity>
-6.62572

$$$$
decoy_loratadine


 27 30  0  0  0  0  0  0  0  0999 V2000
   12.6573   18.3042   -0.4258 C   0  0  0  0  0  0  0  0  0  0  0  0
   13.7447   17.8497   -0.7612 O   0  0  0  0  0  0  0  0  0  0  0  0
   11.4428   17.7837   -0.8257 N   0  0  0  0  0  0  0  0  0  0  0  0
   11.4026   16.5914   -1.6611 C   0  0  0  0  0  0  0  0  0  0  0  0
   10.2351   15.6695   -1.2878 C   0  0  0  0  0  0  0  0  0  0  0  0
    8.8774   16.3679   -1.3255 C   0  0  0  0  0  0  0  0  0  0  0  0
    7.6884   15.7009   -1.3361 C   0  0  0  0  0  0  0  0  0  0  0  0
    7.6770   14.2208   -1.2402 C   0  0  0  0  0  0  0  0  0  0  0  0
    8.0141   13.4151   -2.3355 C   0  0  0  0  0  0  0  0  0  0  0  0
    7.9863   12.0246   -2.2190 C   0  0  0  0  0  0  0  0  0  0  0  0
    7.6064   11.4402   -1.0126 C   0  0  0  0  0  0  0  0  0  0  0  0
    7.5703    9.7256   -0.8699 Cl  0  0  0  0  0  0  0  0  0  0  0  0
    7.2403   12.2317    0.0763 C   0  0  0  0  0  0  0  0  0  0  0  0
    7.2637   13.6291   -0.0335 C   0  0  0  0  0  0  0  0  0  0  0  0
    6.8061   14.5077    1.1049 C   0  0  0  0  0  0  0  0  0  0  0  0
    5.4783   15.2091    0.7883 C   0  0  0  0  0  0  0  0  0  0  0  0
    5.4048   16.2054   -0.3522 C   0  0  0  0  0  0  0  0  0  0  0  0
    4.2142   16.9444   -0.4721 C   0  0  0  0  0  0  0  0  0  0  0  0
    4.0454   17.8554   -1.5080 C   0  0  0  0  0  0  0  0  0  0  0  0
    5.0758   18.0050   -2.4124 C   0  0  0  0  0  0  0  0  0  0  0  0
    6.2347   17.3205   -2.3424 N   0  0  0  0  0  0  0  0  0  0  0  0
    6.3938   16.4358   -1.3195 C   0  0  0  0  0  0  0  0  0  0  0  0
    8.9895   17.8899   -1.2865 C   0  0  0  0  0  0  0  0  0  0  0  0
   10.1663   18.3711   -0.4293 C   0  0  0  0  0  0  0  0  0  0  0  0
   12.5105   19.3814    0.3943 O   0  0  0  0  0  0  0  0  0  0  0  0
   12.4643   18.4139    2.5767 C   0  0  0  0  0  0  0  0  0  0  0  0
   13.2444   19.2950    1.6206 C   0  0  0  0  0  0  0  0  0  0  0  0
 26 27  1  0  0  0
 27 25  1  0  0  0
 25  1  1  0  0  0
  1  2  2  0  0  0
  1  3  1  0  0  0
  3  4  1  0  0  0
  4  5  1  0  0  0
  5  6  1  0  0  0
  6  7  2  0  0  0
  7  8  1  0  0  0
  8  9  2  0  0  0
  9 10  1  0  0  0
 10 11  2  0  0  0
 11 12  1  0  0  0
 11 13  1  0  0  0
 13 14  2  0  0  0
 14 15  1  0  0  0
 15 16  1  0  0  0
 16 17  1  0  0  0
 17 18  2  0  0  0
 18 19  1  0  0  0
 19 20  2  0  0  0
 20 21  1  0  0  0
 21 22  2  0  0  0
  6 23  1  0  0  0
 23 24  1  0  0  0
 24  3  1  0  0  0
 22  7  1  0  0  0
 14  8  1  0  0  0
 22 17  1  0  0  0
M  END
> <minimizedAffinity>
-6.82043

$$$$
decoy_lidocaine


 18 18  0  0  0  0  0  0  0  0999 V2000
    5.0550    8.6714   -0.5373 C   0  0  0  0  0  0  0  0  0  0  0  0
    4.6989    9.6627    0.0903 O   0  0  0  0  0  0  0  0  0  0  0  0
    5.7553    8.6379   -1.7328 N   0  0  0  0  0  0  0  0  0  0  0  0
    6.2254    7.7433   -1.8466 H   0  0  0  0  0  0  0  0  0  0  0  0
    6.2422    9.7368   -2.4757 C   0  0  0  0  0  0  0  0  0  0  0  0
    5.4636   10.1675   -3.5803 C   0  0  0  0  0  0  0  0  0  0  0  0
    4.1770    9.4881   -3.9733 C   0  0  0  0  0  0  0  0  0  0  0  0
    5.9102   11.2356   -4.3762 C   0  0  0  0  0  0  0  0  0  0  0  0
    7.1023   11.8857   -4.0857 C   0  0  0  0  0  0  0  0  0  0  0  0
    7.8447   11.4963   -2.9769 C   0  0  0  0  0  0  0  0  0  0  0  0
    7.4152   10.4469   -2.1412 C   0  0  0  0  0  0  0  0  0  0  0  0
    8.2392   10.1993   -0.9064 C   0  0  0  0  0  0  0  0  0  0  0  0
    4.7324    7.2558   -0.0345 C   0  0  0  0  0  0  0  0  0  0  0  0
    4.8530    7.1768    1.4500 N   0  0  0  0  0  0  0  0  0  0  0  0
    2.7427    5.8857    1.0314 C   0  0  0  0  0  0  0  0  0  0  0  0
    3.8942    6.1885    1.9846 C   0  0  0  0  0  0  0  0  0  0  0  0
    6.2505    6.9250    1.8448 C   0  0  0  0  0  0  0  0  0  0  0  0
    7.1251    8.1520    2.0877 C   0  0  0  0  0  0  0  0  0  0  0  0
 15 16  1  0  0  0
 16 14  1  0  0  0
 14 17  1  0  0  0
 17 18  1  0  0  0
 14 13  1  0  0  0
 13  1  1  0  0  0
  1  2  2  0  0  0
  1  3  1  0  0  0
  3  5  1  0  0  0
  5  6  2  0  0  0
  6  7  1  0  0  0
  6  8  1  0  0  0
  8  9  2  0  0  0
  9 10  1  0  0  0
 10 11  2  0  0  0
 11 12  1  0  0  0
 11  5  1  0  0  0
  3  4  1  0  0  0
M  END
> <minimizedAffinity>
-7.05641

$$$$
decoy_ketoprofen


 20 21  0  0  0  0  0  0  0  0999 V2000
    6.9659   14.0367    0.6590 C   0  0  0  0  0  0  0  0  0  0  0  0
    6.5516   13.6295    1.9368 C   0  0  0  0  0  0  0  0  0  0  0  0
    6.4281   12.2745    2.2522 C   0  0  0  0  0  0  0  0  0  0  0  0
    6.7288   11.3020    1.2994 C   0  0  0  0  0  0  0  0  0  0  0  0
    7.1667   11.6870    0.0287 C   0  0  0  0  0  0  0  0  0  0  0  0
    7.2673   13.0479   -0.2925 C   0  0  0  0  0  0  0  0  0  0  0  0
    7.6375   16.3358    1.4537 C   0  0  0  0  0  0  0  0  0  0  0  0
    7.0978   15.5070    0.2877 C   0  0  0  0  0  0  0  0  0  0  0  0
    5.8026   16.1235   -0.2149 C   0  0  0  0  0  0  0  0  0  0  0  0
    4.7627   16.2985    0.3983 O   0  0  0  0  0  0  0  0  0  0  0  0
    5.9000   16.5408   -1.4968 O   0  0  0  0  0  0  0  0  0  0  0  0
    5.0120   16.9089   -1.6905 H   0  0  0  0  0  0  0  0  0  0  0  0
    7.4878   10.6883   -1.0231 C   0  0  0  0  0  0  0  0  0  0  0  0
    8.3542    9.8449   -0.8051 O   0  0  0  0  0  0  0  0  0  0  0  0
    6.7853   10.6821   -2.3309 C   0  0  0  0  0  0  0  0  0  0  0  0
    5.6888    9.8277   -2.4946 C   0  0  0  0  0  0  0  0  0  0  0  0
    4.9965    9.8030   -3.7060 C   0  0  0  0  0  0  0  0  0  0  0  0
    5.3893   10.6400   -4.7503 C   0  0  0  0  0  0  0  0  0  0  0  0
    6.4680   11.5091   -4.5835 C   0  0  0  0  0  0  0  0  0  0  0  0
    7.1639   11.5371   -3.3731 C   0  0  0  0  0  0  0  0  0  0  0  0
  7  8  1  0  0  0
  8  9  1  0  0  0
  9 10  2  0  0  0
  9 11  1  0  0  0
  8  1  1  0  0  0
  1  2  2  0  0  0
  2  3  1  0  0  0
  3  4  2  0  0  0
  4  5  1  0  0  0
  5 13  1  0  0  0
 13 14  2  0  0  0
 13 15  1  0  0  0
 15 16  2  0  0  0
 16 17  1  0  0  0
 17 18  2  0  0  0
 18 19  1  0  0  0
 19 20  2  0  0  0
  5  6  2  0  0  0
  6  1  1  0  0  0
 20 15  1  0  0  0
 11 12  1  0  0  0
M  END
> <minimizedAffinity>
-8.20154

$$$$
decoy_indomethacin


 26 28  0  0  0  0  0  0  0  0999 V2000
    7.9669   11.6512   -1.8407 C   0  0  0  0  0  0  0  0  0  0  0  0
    8.6080   12.5961   -2.6327 C   0  0  0  0  0  0  0  0  0  0  0  0
    8.7012   13.9362   -2.2420 C   0  0  0  0  0  0  0  0  0  0  0  0
    8.1509   14.3241   -1.0044 C   0  0  0  0  0  0  0  0  0  0  0  0
    7.4586   13.4001   -0.2180 C   0  0  0  0  0  0  0  0  0  0  0  0
    7.3832   12.0489   -0.6365 C   0  0  0  0  0  0  0  0  0  0  0  0
    6.9118   14.0987    0.8975 C   0  0  0  0  0  0  0  0  0  0  0  0
    7.2678   15.4325    0.7596 C   0  0  0  0  0  0  0  0  0  0  0  0
    6.8975   16.5908    1.6307 C   0  0  0  0  0  0  0  0  0  0  0  0
    8.1159   15.5609   -0.3461 N   0  0  0  0  0  0  0  0  0  0  0  0
    8.8105   16.7408   -0.7296 C   0  0  0  0  0  0  0  0  0  0  0  0
    8.3772   17.8253   -0.3421 O   0  0  0  0  0  0  0  0  0  0  0  0
   10.0534   16.7763   -1.5341 C   0  0  0  0  0  0  0  0  0  0  0  0
   11.2718   16.3520   -0.9879 C   0  0  0  0  0  0  0  0  0  0  0  0
   12.4372   16.4228   -1.7556 C   0  0  0  0  0  0  0  0  0  0  0  0
   12.3847   16.9321   -3.0536 C   0  0  0  0  0  0  0  0  0  0  0  0
   13.8217   17.0167   -3.9949 Cl  0  0  0  0  0  0  0  0  0  0  0  0
   11.1779   17.3799   -3.5912 C   0  0  0  0  0  0  0  0  0  0  0  0
   10.0103   17.3104   -2.8279 C   0  0  0  0  0  0  0  0  0  0  0  0
    6.7149    9.6964   -2.3570 C   0  0  0  0  0  0  0  0  0  0  0  0
    7.9601   10.3837   -2.3558 O   0  0  0  0  0  0  0  0  0  0  0  0
    6.0791   13.4879    1.9823 C   0  0  0  0  0  0  0  0  0  0  0  0
    4.6054   13.6113    1.6933 C   0  0  0  0  0  0  0  0  0  0  0  0
    4.0562   14.5070    1.0718 O   0  0  0  0  0  0  0  0  0  0  0  0
    3.8800   12.5870    2.1915 O   0  0  0  0  0  0  0  0  0  0  0  0
    2.9687   12.7843    1.8875 H   0  0  0  0  0  0  0  0  0  0  0  0
 20 21  1  0  0  0
 21  1  1  0  0  0
  1  2  2  0  0  0
  2  3  1  0  0  0
  3  4  2  0  0  0
  4  5  1  0  0  0
  5  6  2  0  0  0
  5  7  1  0  0  0
  7 22  1  0  0  0
 22 23  1  0  0  0
 23 24  2  0  0  0
 23 25  1  0  0  0
  7  8  2  0  0  0
  8  9  1  0  0  0
  8 10  1  0  0  0
 10 11  1  0  0  0
 11 12  2  0  0  0
 11 13  1  0  0  0
 13 14  2  0  0  0
 14 15  1  0  0  0
 15 16  2  0  0  0
 16 17  1  0  0  0
 16 18  1  0  0  0
 18 19  2  0  0  0
  6  1  1  0  0  0
 19 13  1  0  0  0
 10  4  1  0  0  0
 25 26  1  0  0  0
M  END
> <minimizedAffinity>
-6.82705

$$$$
decoy_ibuprofen


 16 16  0  0  0  0  0  0  0  0999 V2000
    7.8487   12.3026   -1.5816 C   0  0  0  0  0  0  0  0  0  0  0  0
    7.2580   12.2386   -0.3147 C   0  0  0  0  0  0  0  0  0  0  0  0
    6.3303   11.2386   -0.0100 C   0  0  0  0  0  0  0  0  0  0  0  0
    5.9716   10.2761   -0.9653 C   0  0  0  0  0  0  0  0  0  0  0  0
    6.5699   10.3404   -2.2316 C   0  0  0  0  0  0  0  0  0  0  0  0
    7.4985   11.3397   -2.5348 C   0  0  0  0  0  0  0  0  0  0  0  0
    4.9496    9.2059   -0.6145 C   0  0  0  0  0  0  0  0  0  0  0  0
    4.5246    8.4002   -1.8425 C   0  0  0  0  0  0  0  0  0  0  0  0
    5.4203    8.2541    0.4722 C   0  0  0  0  0  0  0  0  0  0  0  0
    6.5144    8.2015    1.0092 O   0  0  0  0  0  0  0  0  0  0  0  0
    4.4711    7.3505    0.8052 O   0  0  0  0  0  0  0  0  0  0  0  0
    4.9055    6.8046    1.4943 H   0  0  0  0  0  0  0  0  0  0  0  0
    8.8517   13.3822   -1.9107 C   0  0  0  0  0  0  0  0  0  0  0  0
    7.3963   15.4766   -1.6851 C   0  0  0  0  0  0  0  0  0  0  0  0
    8.6493   14.7410   -1.2081 C   0  0  0  0  0  0  0  0  0  0  0  0
    9.8741   15.6509   -1.3084 C   0  0  0  0  0  0  0  0  0  0  0  0
 14 15  1  0  0  0
 15 16  1  0  0  0
 15 13  1  0  0  0
 13  1  1  0  0  0
  1  2  2  0  0  0
  2  3  1  0  0  0
  3  4  2  0  0  0
  4  7  1  0  0  0
  7  8  1  0  0  0
  7  9  1  0  0  0
  9 10  2  0  0  0
  9 11  1  0  0  0
  4  5  1  0  0  0
  5  6  2  0  0  0
  6  1  1  0  0  0
 11 12  1  0  0  0
M  END
> <minimizedAffinity>
-6.82868

$$$$
decoy_hydrochlorothiazide


 21 22  0  0  0  0  0  0  0  0999 V2000
   14.3614   16.5144    1.2196 C   0  0  0  0  0  0  0  0  0  0  0  0
   14.0682   17.6220    2.0240 C   0  0  0  0  0  0  0  0  0  0  0  0
   13.9501   17.4517    3.4072 C   0  0  0  0  0  0  0  0  0  0  0  0
   14.0869   16.2072    4.0212 C   0  0  0  0  0  0  0  0  0  0  0  0
   14.3908   15.1164    3.1948 C   0  0  0  0  0  0  0  0  0  0  0  0
   14.5265   15.2569    1.8029 C   0  0  0  0  0  0  0  0  0  0  0  0
   14.8796   13.8178    0.9151 Cl  0  0  0  0  0  0  0  0  0  0  0  0
   14.0189   16.0065    5.3969 N   0  0  0  0  0  0  0  0  0  0  0  0
   13.8215   17.1102    6.3051 C   0  0  0  0  0  0  0  0  0  0  0  0
   12.8700   18.0524    5.7652 N   0  0  0  0  0  0  0  0  0  0  0  0
   13.4880   18.8188    4.4035 S   0  0  0  0  0  0  0  0  0  0  0  0
   12.3800   19.5002    3.7739 O   0  0  0  0  0  0  0  0  0  0  0  0
   14.6867   19.5204    4.8030 O   0  0  0  0  0  0  0  0  0  0  0  0
   13.5150   15.1639    5.6605 H   0  0  0  0  0  0  0  0  0  0  0  0
   12.5779   18.7588    6.4378 H   0  0  0  0  0  0  0  0  0  0  0  0
   14.2925   18.4144   -0.6941 N   0  0  0  0  0  0  0  0  0  0  0  0
   14.5314   16.7631   -0.5189 S   0  0  0  0  0  0  0  0  0  0  0  0
   15.9137   16.5518   -0.8853 O   0  0  0  0  0  0  0  0  0  0  0  0
   13.4547   16.0950   -1.2075 O   0  0  0  0  0  0  0  0  0  0  0  0
   13.4468   18.5867   -1.2401 H   0  0  0  0  0  0  0  0  0  0  0  0
   15.1309   18.8463   -1.0851 H   0  0  0  0  0  0  0  0  0  0  0  0
 16 17  1  0  0  0
 17 18  2  0  0  0
 17 19  2  0  0  0
 17  1  1  0  0  0
  1  2  2  0  0  0
  2  3  1  0  0  0
  3  4  2  0  0  0
  4  5  1  0  0  0
  5  6  2  0  0  0
  6  7  1  0  0  0
  4  8  1  0  0  0
  8  9  1  0  0  0
  9 10  1  0  0  0
 10 11  1  0  0  0
 11 12  2  0  0  0
 11 13  2  0  0  0
  6  1  1  0  0  0
 11  3  1  0  0  0
 16 20  1  0  0  0
 16 21  1  0  0  0
  8 14  1  0  0  0
 10 15  1  0  0  0
M  END
> <minimizedAffinity>
-6.01218

$$$$
decoy_haloperidol


 27 29  0  0  0  0  0  0  0  0999 V2000
    6.4875   14.2213    0.9143 N   0  0  0  0  0  0  0  0  0  0  0  0
    7.5217   15.1668    1.3222 C   0  0  0  0  0  0  0  0  0  0  0  0
    7.6784   16.2840    0.2820 C   0  0  0  0  0  0  0  0  0  0  0  0
    7.7936   15.7647   -1.1700 C   0  0  0  0  0  0  0  0  0  0  0  0
    6.5693   16.0795   -1.8615 O   0  0  0  0  0  0  0  0  0  0  0  0
    7.9180   14.2347   -1.1769 C   0  0  0  0  0  0  0  0  0  0  0  0
    6.8046   13.5628   -0.3630 C   0  0  0  0  0  0  0  0  0  0  0  0
    6.7627   16.0723   -2.8145 H   0  0  0  0  0  0  0  0  0  0  0  0
    8.9031   16.5110   -1.9223 C   0  0  0  0  0  0  0  0  0  0  0  0
   10.1813   15.9201   -2.0146 C   0  0  0  0  0  0  0  0  0  0  0  0
   11.2299   16.5544   -2.6854 C   0  0  0  0  0  0  0  0  0  0  0  0
   11.0174   17.7945   -3.2761 C   0  0  0  0  0  0  0  0  0  0  0  0
   12.3030   18.5820   -4.1038 Cl  0  0  0  0  0  0  0  0  0  0  0  0
    9.7677   18.4019   -3.1988 C   0  0  0  0  0  0  0  0  0  0  0  0
    8.7180   17.7653   -2.5259 C   0  0  0  0  0  0  0  0  0  0  0  0
    6.1409   13.2319    1.9444 C   0  0  0  0  0  0  0  0  0  0  0  0
    5.5838   11.9323    1.3432 C   0  0  0  0  0  0  0  0  0  0  0  0
    6.6151   10.8057    1.3444 C   0  0  0  0  0  0  0  0  0  0  0  0
    5.9809    8.5276    1.0097 O   0  0  0  0  0  0  0  0  0  0  0  0
    6.1738    9.6296    0.4962 C   0  0  0  0  0  0  0  0  0  0  0  0
    5.9536    9.8016   -0.9735 C   0  0  0  0  0  0  0  0  0  0  0  0
    6.8481   10.4971   -1.7992 C   0  0  0  0  0  0  0  0  0  0  0  0
    6.5841   10.6271   -3.1667 C   0  0  0  0  0  0  0  0  0  0  0  0
    5.4312   10.0667   -3.7044 C   0  0  0  0  0  0  0  0  0  0  0  0
    5.1845   10.1952   -5.0140 F   0  0  0  0  0  0  0  0  0  0  0  0
    4.5317    9.3781   -2.9015 C   0  0  0  0  0  0  0  0  0  0  0  0
    4.7915    9.2465   -1.5355 C   0  0  0  0  0  0  0  0  0  0  0  0
 19 20  2  0  0  0
 20 18  1  0  0  0
 18 17  1  0  0  0
 17 16  1  0  0  0
 16  1  1  0  0  0
  1  2  1  0  0  0
  2  3  1  0  0  0
  3  4  1  0  0  0
  4  5  1  0  0  0
  4  9  1  0  0  0
  9 10  2  0  0  0
 10 11  1  0  0  0
 11 12  2  0  0  0
 12 13  1  0  0  0
 12 14  1  0  0  0
 14 15  2  0  0  0
  4  6  1  0  0  0
  6  7  1  0  0  0
 20 21  1  0  0  0
 21 22  2  0  0  0
 22 23  1  0  0  0
 23 24  2  0  0  0
 24 25  1  0  0  0
 24 26  1  0  0  0
 26 27  2  0  0  0
  7  1  1  0  0  0
 27 21  1  0  0  0
 15  9  1  0  0  0
  5  8  1  0  0  0
M  END
> <minimizedAffinity>
-7.54202

$$$$
decoy_furosemide


 25 26  0  0  0  0  0  0  0  0999 V2000
    7.5444   14.9423   -0.1096 C   0  0  0  0  0  0  0  0  0  0  0  0
    6.8308   13.9502    0.5752 C   0  0  0  0  0  0  0  0  0  0  0  0
    6.9600   12.5933    0.2227 C   0  0  0  0  0  0  0  0  0  0  0  0
    7.8095   12.2130   -0.8428 C   0  0  0  0  0  0  0  0  0  0  0  0
    8.5451   13.2290   -1.4816 C   0  0  0  0  0  0  0  0  0  0  0  0
    8.4093   14.5820   -1.1370 C   0  0  0  0  0  0  0  0  0  0  0  0
    9.3309   15.7114   -2.0611 Cl  0  0  0  0  0  0  0  0  0  0  0  0
    6.8916   17.4244   -1.0051 N   0  0  0  0  0  0  0  0  0  0  0  0
    7.3422   16.6239    0.4010 S   0  0  0  0  0  0  0  0  0  0  0  0
    6.1681   16.6980    1.2421 O   0  0  0  0  0  0  0  0  0  0  0  0
    8.6238   17.1223    0.8342 O   0  0  0  0  0  0  0  0  0  0  0  0
    7.1031   16.9298   -1.8691 H   0  0  0  0  0  0  0  0  0  0  0  0
    5.9218   17.7343   -0.9325 H   0  0  0  0  0  0  0  0  0  0  0  0
    6.1421   11.6424    1.0299 C   0  0  0  0  0  0  0  0  0  0  0  0
    4.9743   11.8047    1.3362 O   0  0  0  0  0  0  0  0  0  0  0  0
    6.7874   10.5147    1.3822 O   0  0  0  0  0  0  0  0  0  0  0  0
    6.1063   10.0072    1.8748 H   0  0  0  0  0  0  0  0  0  0  0  0
    8.0294   10.8613   -1.1702 N   0  0  0  0  0  0  0  0  0  0  0  0
    7.8353   10.2789   -0.3438 H   0  0  0  0  0  0  0  0  0  0  0  0
    7.3469   10.2763   -2.3300 C   0  0  0  0  0  0  0  0  0  0  0  0
    6.0563    9.5908   -2.0333 C   0  0  0  0  0  0  0  0  0  0  0  0
    4.8423    9.5273   -2.6862 C   0  0  0  0  0  0  0  0  0  0  0  0
    4.0020    8.7147   -1.8873 C   0  0  0  0  0  0  0  0  0  0  0  0
    4.7545    8.3356   -0.8008 C   0  0  0  0  0  0  0  0  0  0  0  0
    6.0034    8.8616   -0.8801 O   0  0  0  0  0  0  0  0  0  0  0  0
  8  9  1  0  0  0
  9 10  2  0  0  0
  9 11  2  0  0  0
  9  1  1  0  0  0
  1  2  2  0  0  0
  2  3  1  0  0  0
  3 14  1  0  0  0
 14 15  2  0  0  0
 14 16  1  0  0  0
  3  4  2  0  0  0
  4 18  1  0  0  0
 18 20  1  0  0  0
 20 21  1  0  0  0
 21 22  2  0  0  0
 22 23  1  0  0  0
 23 24  2  0  0  0
 24 25  1  0  0  0
  4  5  1  0  0  0
  5  6  2  0  0  0
  6  7  1  0  0  0
  6  1  1  0  0  0
 25 21  1  0  0  0
  8 12  1  0  0  0
  8 13  1  0  0  0
 16 17  1  0  0  0
 18 19  1  0  0  0
M  END
> <minimizedAffinity>
-7.11728

$$$$
decoy_fluoxetine


 23 24  0  0  0  0  0  0  0  0999 V2000
    6.8026   10.6009   -0.4893 C   0  0  0  0  0  0  0  0  0  0  0  0
    6.8440   11.9047    0.2918 C   0  0  0  0  0  0  0  0  0  0  0  0
    6.5317   11.9428    1.6596 C   0  0  0  0  0  0  0  0  0  0  0  0
    6.5863   13.1435    2.3687 C   0  0  0  0  0  0  0  0  0  0  0  0
    6.9575   14.3199    1.7216 C   0  0  0  0  0  0  0  0  0  0  0  0
    7.2742   14.2976    0.3651 C   0  0  0  0  0  0  0  0  0  0  0  0
    7.2189   13.0980   -0.3465 C   0  0  0  0  0  0  0  0  0  0  0  0
    7.8138   10.6051   -1.6543 C   0  0  0  0  0  0  0  0  0  0  0  0
    7.1511   10.4334   -3.0237 C   0  0  0  0  0  0  0  0  0  0  0  0
    6.4684   11.7827   -4.9277 C   0  0  0  0  0  0  0  0  0  0  0  0
    7.5355   11.4684   -3.9875 N   0  0  0  0  0  0  0  0  0  0  0  0
    7.8163   12.3167   -3.4964 H   0  0  0  0  0  0  0  0  0  0  0  0
    7.1752    9.4912    0.3498 O   0  0  0  0  0  0  0  0  0  0  0  0
    6.2473    8.5279    0.6277 C   0  0  0  0  0  0  0  0  0  0  0  0
    6.2778    7.6368    1.6983 C   0  0  0  0  0  0  0  0  0  0  0  0
    5.2607    6.6874    1.8545 C   0  0  0  0  0  0  0  0  0  0  0  0
    4.2047    6.6070    0.9347 C   0  0  0  0  0  0  0  0  0  0  0  0
    4.1819    7.5046   -0.1407 C   0  0  0  0  0  0  0  0  0  0  0  0
    5.1997    8.4496   -0.2932 C   0  0  0  0  0  0  0  0  0  0  0  0
    3.0993    5.5970    1.1185 C   0  0  0  0  0  0  0  0  0  0  0  0
    3.3932    4.3986    0.5426 F   0  0  0  0  0  0  0  0  0  0  0  0
    1.9157    5.9934    0.5720 F   0  0  0  0  0  0  0  0  0  0  0  0
    2.8310    5.3272    2.4268 F   0  0  0  0  0  0  0  0  0  0  0  0
 10 11  1  0  0  0
 11  9  1  0  0  0
  9  8  1  0  0  0
  8  1  1  0  0  0
  1 13  1  0  0  0
 13 14  1  0  0  0
 14 15  2  0  0  0
 15 16  1  0  0  0
 16 17  2  0  0  0
 17 20  1  0  0  0
 20 21  1  0  0  0
 20 22  1  0  0  0
 20 23  1  0  0  0
 17 18  1  0  0  0
 18 19  2  0  0  0
  1  2  1  0  0  0
  2  3  2  0  0  0
  3  4  1  0  0  0
  4  5  2  0  0  0
  5  6  1  0  0  0
  6  7  2  0  0  0
 19 14  1  0  0  0
  7  2  1  0  0  0
 11 12  1  0  0  0
M  END
> <minimizedAffinity>
-7.47354

$$$$
decoy_fluconazole


 23 25  0  0  0  0  0  0  0  0999 V2000
    4.9360   10.1460    0.5785 O   0  0  0  0  0  0  0  0  0  0  0  0
    6.3087   10.5477    0.3522 C   0  0  0  0  0  0  0  0  0  0  0  0
    4.3810   10.9496    0.4502 H   0  0  0  0  0  0  0  0  0  0  0  0
    6.4954   10.8005   -1.1487 C   0  0  0  0  0  0  0  0  0  0  0  0
    5.6296   10.2664   -2.1215 C   0  0  0  0  0  0  0  0  0  0  0  0
    5.8284   10.5286   -3.4816 C   0  0  0  0  0  0  0  0  0  0  0  0
    6.8819   11.3383   -3.8843 C   0  0  0  0  0  0  0  0  0  0  0  0
    7.0628   11.5878   -5.1871 F   0  0  0  0  0  0  0  0  0  0  0  0
    7.7340   11.9057   -2.9538 C   0  0  0  0  0  0  0  0  0  0  0  0
    7.5305   11.6409   -1.6033 C   0  0  0  0  0  0  0  0  0  0  0  0
    8.3362   12.2521   -0.7234 F   0  0  0  0  0  0  0  0  0  0  0  0
    6.5894   11.7497    1.3022 C   0  0  0  0  0  0  0  0  0  0  0  0
    5.5167   12.7256    1.3869 N   0  0  0  0  0  0  0  0  0  0  0  0
    5.4981   13.9822    0.8668 C   0  0  0  0  0  0  0  0  0  0  0  0
    4.3514   14.5550    1.1487 N   0  0  0  0  0  0  0  0  0  0  0  0
    3.6969   13.5996    1.8715 C   0  0  0  0  0  0  0  0  0  0  0  0
    4.3720   12.4593    2.0492 N   0  0  0  0  0  0  0  0  0  0  0  0
    7.1524    9.3243    0.7924 C   0  0  0  0  0  0  0  0  0  0  0  0
    6.3856    8.1767    1.2122 N   0  0  0  0  0  0  0  0  0  0  0  0
    6.5917    7.3869    2.2992 C   0  0  0  0  0  0  0  0  0  0  0  0
    5.6836    6.4393    2.3273 N   0  0  0  0  0  0  0  0  0  0  0  0
    4.9428    6.6870    1.2084 C   0  0  0  0  0  0  0  0  0  0  0  0
    5.3268    7.7517    0.4971 N   0  0  0  0  0  0  0  0  0  0  0  0
  1  2  1  0  0  0
  2 12  1  0  0  0
 12 13  1  0  0  0
 13 14  1  0  0  0
 14 15  2  0  0  0
 15 16  1  0  0  0
 16 17  2  0  0  0
  2 18  1  0  0  0
 18 19  1  0  0  0
 19 20  1  0  0  0
 20 21  2  0  0  0
 21 22  1  0  0  0
 22 23  2  0  0  0
  2  4  1  0  0  0
  4  5  2  0  0  0
  5  6  1  0  0  0
  6  7  2  0  0  0
  7  8  1  0  0  0
  7  9  1  0  0  0
  9 10  2  0  0  0
 10 11  1  0  0  0
 17 13  1  0  0  0
 23 19  1  0  0  0
 10  4  1  0  0  0
  1  3  1  0  0  0
M  END
> <minimizedAffinity>
-7.67282

$$$$
decoy_diphenhydramine


 19 20  0  0  0  0  0  0  0  0999 V2000
    6.6472    9.9944    0.1787 C   0  0  0  0  0  0  0  0  0  0  0  0
    5.9255    9.7874   -1.1453 C   0  0  0  0  0  0  0  0  0  0  0  0
    6.4927   10.2587   -2.3433 C   0  0  0  0  0  0  0  0  0  0  0  0
    5.8302   10.0895   -3.5622 C   0  0  0  0  0  0  0  0  0  0  0  0
    4.5922    9.4511   -3.6006 C   0  0  0  0  0  0  0  0  0  0  0  0
    4.0143    8.9817   -2.4213 C   0  0  0  0  0  0  0  0  0  0  0  0
    4.6754    9.1496   -1.2020 C   0  0  0  0  0  0  0  0  0  0  0  0
    6.6271   11.4488    0.6312 C   0  0  0  0  0  0  0  0  0  0  0  0
    5.8916   11.8191    1.7711 C   0  0  0  0  0  0  0  0  0  0  0  0
    5.8714   13.1452    2.2079 C   0  0  0  0  0  0  0  0  0  0  0  0
    6.5904   14.1180    1.5166 C   0  0  0  0  0  0  0  0  0  0  0  0
    7.3312   13.7662    0.3891 C   0  0  0  0  0  0  0  0  0  0  0  0
    7.3512   12.4410   -0.0497 C   0  0  0  0  0  0  0  0  0  0  0  0
    6.0413    9.1438    1.1669 O   0  0  0  0  0  0  0  0  0  0  0  0
    6.9149    8.1249    1.6612 C   0  0  0  0  0  0  0  0  0  0  0  0
    6.1200    6.8750    2.0894 C   0  0  0  0  0  0  0  0  0  0  0  0
    3.8539    6.3465    2.8274 C   0  0  0  0  0  0  0  0  0  0  0  0
    4.6926    6.8181    1.7280 N   0  0  0  0  0  0  0  0  0  0  0  0
    4.4494    6.0422    0.5141 C   0  0  0  0  0  0  0  0  0  0  0  0
 17 18  1  0  0  0
 18 19  1  0  0  0
 18 16  1  0  0  0
 16 15  1  0  0  0
 15 14  1  0  0  0
 14  1  1  0  0  0
  1  2  1  0  0  0
  2  3  2  0  0  0
  3  4  1  0  0  0
  4  5  2  0  0  0
  5  6  1  0  0  0
  6  7  2  0  0  0
  1  8  1  0  0  0
  8  9  2  0  0  0
  9 10  1  0  0  0
 10 11  2  0  0  0
 11 12  1  0  0  0
 12 13  2  0  0  0
  7  2  1  0  0  0
 13  8  1  0  0  0
M  END
> <minimizedAffinity>
-7.33581

$$$$
decoy_diazepam


 20 22  0  0  0  0  0  0  0  0999 V2000
    3.9619    6.8835    0.4501 C   0  0  0  0  0  0  0  0  0  0  0  0
    5.1207    7.7654    0.4051 N   0  0  0  0  0  0  0  0  0  0  0  0
    6.0660    7.6087    1.4269 C   0  0  0  0  0  0  0  0  0  0  0  0
    5.8958    6.8274    2.3678 O   0  0  0  0  0  0  0  0  0  0  0  0
    7.3711    8.3811    1.2929 C   0  0  0  0  0  0  0  0  0  0  0  0
    7.1147    9.8017    1.5050 N   0  0  0  0  0  0  0  0  0  0  0  0
    6.4601   10.4405    0.5949 C   0  0  0  0  0  0  0  0  0  0  0  0
    6.0056    9.8310   -0.6893 C   0  0  0  0  0  0  0  0  0  0  0  0
    6.2385   10.5710   -1.8640 C   0  0  0  0  0  0  0  0  0  0  0  0
    5.7425   10.1222   -3.0820 C   0  0  0  0  0  0  0  0  0  0  0  0
    6.0163   11.0385   -4.5101 Cl  0  0  0  0  0  0  0  0  0  0  0  0
    5.0157    8.9413   -3.1458 C   0  0  0  0  0  0  0  0  0  0  0  0
    4.8048    8.1904   -1.9846 C   0  0  0  0  0  0  0  0  0  0  0  0
    5.3175    8.6017   -0.7387 C   0  0  0  0  0  0  0  0  0  0  0  0
    6.1523   11.8834    0.8572 C   0  0  0  0  0  0  0  0  0  0  0  0
    7.1091   12.8523    0.5312 C   0  0  0  0  0  0  0  0  0  0  0  0
    6.8468   14.2029    0.7657 C   0  0  0  0  0  0  0  0  0  0  0  0
    5.6342   14.5891    1.3356 C   0  0  0  0  0  0  0  0  0  0  0  0
    4.6854   13.6265    1.6803 C   0  0  0  0  0  0  0  0  0  0  0  0
    4.9434   12.2737    1.4478 C   0  0  0  0  0  0  0  0  0  0  0  0
  1  2  1  0  0  0
  2  3  1  0  0  0
  3  4  2  0  0  0
  3  5  1  0  0  0
  5  6  1  0  0  0
  6  7  2  0  0  0
  7 15  1  0  0  0
 15 16  2  0  0  0
 16 17  1  0  0  0
 17 18  2  0  0  0
 18 19  1  0  0  0
 19 20  2  0  0  0
  7  8  1  0  0  0
  8  9  2  0  0  0
  9 10  1  0  0  0
 10 11  1  0  0  0
 10 12  2  0  0  0
 12 13  1  0  0  0
 13 14  2  0  0  0
 14  2  1  0  0  0
 20 15  1  0  0  0
 14  8  1  0  0  0
M  END
> <minimizedAffinity>
-8.15945

$$$$
decoy_ciprofloxacin


 26 29  0  0  0  0  0  0  0  0999 V2000
    6.1836   10.3374    0.2655 C   0  0  0  0  0  0  0  0  0  0  0  0
    5.5716   11.2874    0.9892 C   0  0  0  0  0  0  0  0  0  0  0  0
    5.9118   12.6276    1.0267 N   0  0  0  0  0  0  0  0  0  0  0  0
    6.8977   13.1163    0.1231 C   0  0  0  0  0  0  0  0  0  0  0  0
    7.1884   14.4853   -0.0202 C   0  0  0  0  0  0  0  0  0  0  0  0
    8.1739   14.9710   -0.9079 C   0  0  0  0  0  0  0  0  0  0  0  0
    8.8886   14.0086   -1.6445 C   0  0  0  0  0  0  0  0  0  0  0  0
    9.8487   14.3698   -2.5097 F   0  0  0  0  0  0  0  0  0  0  0  0
    8.6220   12.6472   -1.5337 C   0  0  0  0  0  0  0  0  0  0  0  0
    7.6260   12.2057   -0.6610 C   0  0  0  0  0  0  0  0  0  0  0  0
    7.3429   10.7507   -0.5595 C   0  0  0  0  0  0  0  0  0  0  0  0
    8.0717    9.9480   -1.1318 O   0  0  0  0  0  0  0  0  0  0  0  0
    8.3957   16.3621   -0.9623 N   0  0  0  0  0  0  0  0  0  0  0  0
    7.2240   17.2541   -0.7992 C   0  0  0  0  0  0  0  0  0  0  0  0
    7.6148   18.7134   -1.1294 C   0  0  0  0  0  0  0  0  0  0  0  0
    8.7429   19.2117   -0.3182 N   0  0  0  0  0  0  0  0  0  0  0  0
    9.8863   18.2921   -0.4613 C   0  0  0  0  0  0  0  0  0  0  0  0
    9.5438   16.8178   -0.1383 C   0  0  0  0  0  0  0  0  0  0  0  0
    9.0118   20.1348   -0.6562 H   0  0  0  0  0  0  0  0  0  0  0  0
    4.6123    8.5779   -0.1393 O   0  0  0  0  0  0  0  0  0  0  0  0
    5.6573    8.9708    0.3540 C   0  0  0  0  0  0  0  0  0  0  0  0
    6.4797    8.1219    0.9868 O   0  0  0  0  0  0  0  0  0  0  0  0
    6.0075    7.2649    0.9914 H   0  0  0  0  0  0  0  0  0  0  0  0
    5.0798   13.5360    1.8383 C   0  0  0  0  0  0  0  0  0  0  0  0
    3.7379   14.0401    1.3618 C   0  0  0  0  0  0  0  0  0  0  0  0
    3.8043   13.0644    2.4932 C   0  0  0  0  0  0  0  0  0  0  0  0
 20 21  2  0  0  0
 21 22  1  0  0  0
 21  1  1  0  0  0
  1  2  2  0  0  0
  2  3  1  0  0  0
  3 24  1  0  0  0
 24 25  1  0  0  0
 25 26  1  0  0  0
  3  4  1  0  0  0
  4  5  2  0  0  0
  5  6  1  0  0  0
  6 13  1  0  0  0
 13 14  1  0  0  0
 14 15  1  0  0  0
 15 16  1  0  0  0
 16 17  1  0  0  0
 17 18  1  0  0  0
  6  7  2  0  0  0
  7  8  1  0  0  0
  7  9  1  0  0  0
  9 10  2  0  0  0
 10 11  1  0  0  0
 11 12  2  0  0  0
 11  1  1  0  0  0
 26 24  1  0  0  0
 10  4  1  0  0  0
 18 13  1  0  0  0
 22 23  1  0  0  0
 16 19  1  0  0  0
M  END
> <minimizedAffinity>
-7.16469

$$$$
decoy_chlorpromazine


 21 23  0  0  0  0  0  0  0  0999 V2000
    6.7513    9.9128   -0.6330 N   0  0  0  0  0  0  0  0  0  0  0  0
    6.4407    8.9075    0.3299 C   0  0  0  0  0  0  0  0  0  0  0  0
    7.2219    8.7066    1.4911 C   0  0  0  0  0  0  0  0  0  0  0  0
    6.9334    7.7141    2.4363 C   0  0  0  0  0  0  0  0  0  0  0  0
    5.8465    6.8781    2.2515 C   0  0  0  0  0  0  0  0  0  0  0  0
    5.0558    7.0400    1.1204 C   0  0  0  0  0  0  0  0  0  0  0  0
    5.3441    8.0368    0.1659 C   0  0  0  0  0  0  0  0  0  0  0  0
    4.2151    8.1231   -1.2029 S   0  0  0  0  0  0  0  0  0  0  0  0
    5.0195    9.2766   -2.2870 C   0  0  0  0  0  0  0  0  0  0  0  0
    4.4352    9.4065   -3.5638 C   0  0  0  0  0  0  0  0  0  0  0  0
    4.9551   10.2878   -4.5045 C   0  0  0  0  0  0  0  0  0  0  0  0
    6.0647   11.0427   -4.1682 C   0  0  0  0  0  0  0  0  0  0  0  0
    6.7348   12.1343   -5.3189 Cl  0  0  0  0  0  0  0  0  0  0  0  0
    6.6497   10.9230   -2.9032 C   0  0  0  0  0  0  0  0  0  0  0  0
    6.1457   10.0426   -1.9180 C   0  0  0  0  0  0  0  0  0  0  0  0
    7.7174   10.9652   -0.2258 C   0  0  0  0  0  0  0  0  0  0  0  0
    6.9987   12.2692    0.1543 C   0  0  0  0  0  0  0  0  0  0  0  0
    6.7705   12.3852    1.6663 C   0  0  0  0  0  0  0  0  0  0  0  0
    4.4594   12.8601    2.1453 C   0  0  0  0  0  0  0  0  0  0  0  0
    5.8066   13.4317    2.0426 N   0  0  0  0  0  0  0  0  0  0  0  0
    5.7936   14.5319    1.0738 C   0  0  0  0  0  0  0  0  0  0  0  0
 19 20  1  0  0  0
 20 21  1  0  0  0
 20 18  1  0  0  0
 18 17  1  0  0  0
 17 16  1  0  0  0
 16  1  1  0  0  0
  1  2  1  0  0  0
  2  3  2  0  0  0
  3  4  1  0  0  0
  4  5  2  0  0  0
  5  6  1  0  0  0
  6  7  2  0  0  0
  7  8  1  0  0  0
  8  9  1  0  0  0
  9 10  2  0  0  0
 10 11  1  0  0  0
 11 12  2  0  0  0
 12 13  1  0  0  0
 12 14  1  0  0  0
 14 15  2  0  0  0
 15  1  1  0  0  0
  7  2  1  0  0  0
 15  9  1  0  0  0
M  END
> <minimizedAffinity>
-7.33807

$$$$
decoy_celecoxib


 28 30  0  0  0  0  0  0  0  0999 V2000
    7.5726   16.3602   -1.7410 C   0  0  0  0  0  0  0  0  0  0  0  0
    8.5426   17.2663   -2.1289 C   0  0  0  0  0  0  0  0  0  0  0  0
    9.7851   16.6377   -1.9064 C   0  0  0  0  0  0  0  0  0  0  0  0
    9.6067   15.4024   -1.4124 N   0  0  0  0  0  0  0  0  0  0  0  0
    8.2576   15.1943   -1.3933 N   0  0  0  0  0  0  0  0  0  0  0  0
    1.9134   17.4363   -1.3585 C   0  0  0  0  0  0  0  0  0  0  0  0
    3.3782   17.1279   -1.4593 C   0  0  0  0  0  0  0  0  0  0  0  0
    4.1339   16.8924   -0.3051 C   0  0  0  0  0  0  0  0  0  0  0  0
    5.5044   16.6366   -0.3958 C   0  0  0  0  0  0  0  0  0  0  0  0
    6.1385   16.6120   -1.6436 C   0  0  0  0  0  0  0  0  0  0  0  0
    5.3903   16.8791   -2.7954 C   0  0  0  0  0  0  0  0  0  0  0  0
    4.0197   17.1345   -2.7034 C   0  0  0  0  0  0  0  0  0  0  0  0
    7.7745   13.8880   -1.0559 C   0  0  0  0  0  0  0  0  0  0  0  0
    7.8503   12.8671   -2.0239 C   0  0  0  0  0  0  0  0  0  0  0  0
    7.3903   11.5770   -1.7438 C   0  0  0  0  0  0  0  0  0  0  0  0
    6.8475   11.2987   -0.4900 C   0  0  0  0  0  0  0  0  0  0  0  0
    6.7346   12.3050    0.4706 C   0  0  0  0  0  0  0  0  0  0  0  0
    7.1955   13.5965    0.1866 C   0  0  0  0  0  0  0  0  0  0  0  0
    6.2346    9.6772   -0.1418 S   0  0  0  0  0  0  0  0  0  0  0  0
    6.1771    8.9925   -1.6737 N   0  0  0  0  0  0  0  0  0  0  0  0
    7.2373    8.9340    0.5851 O   0  0  0  0  0  0  0  0  0  0  0  0
    4.8644    9.7712    0.3043 O   0  0  0  0  0  0  0  0  0  0  0  0
    6.8126    8.1958   -1.7193 H   0  0  0  0  0  0  0  0  0  0  0  0
    5.2118    8.7635   -1.9125 H   0  0  0  0  0  0  0  0  0  0  0  0
   11.1477   17.2342   -2.1358 C   0  0  0  0  0  0  0  0  0  0  0  0
   11.9784   17.0655   -1.0733 F   0  0  0  0  0  0  0  0  0  0  0  0
   11.0924   18.5681   -2.3923 F   0  0  0  0  0  0  0  0  0  0  0  0
   11.7730   16.6646   -3.2043 F   0  0  0  0  0  0  0  0  0  0  0  0
  6  7  1  0  0  0
  7  8  2  0  0  0
  8  9  1  0  0  0
  9 10  2  0  0  0
 10  1  1  0  0  0
  1  2  2  0  0  0
  2  3  1  0  0  0
  3 25  1  0  0  0
 25 26  1  0  0  0
 25 27  1  0  0  0
 25 28  1  0  0  0
  3  4  2  0  0  0
  4  5  1  0  0  0
  5 13  1  0  0  0
 13 14  2  0  0  0
 14 15  1  0  0  0
 15 16  2  0  0  0
 16 19  1  0  0  0
 19 20  1  0  0  0
 19 21  2  0  0  0
 19 22  2  0  0  0
 16 17  1  0  0  0
 17 18  2  0  0  0
 10 11  1  0  0  0
 11 12  2  0  0  0
 12  7  1  0  0  0
  5  1  1  0  0  0
 18 13  1  0  0  0
 20 23  1  0  0  0
 20 24  1  0  0  0
M  END
> <minimizedAffinity>
-7.55977

$$$$
decoy_captopril


 16 16  0  0  0  0  0  0  0  0999 V2000
    5.9329   11.8200    0.7283 C   0  0  0  0  0  0  0  0  0  0  0  0
    4.8050   11.6096    1.1793 O   0  0  0  0  0  0  0  0  0  0  0  0
    6.4156   11.0827   -0.3323 N   0  0  0  0  0  0  0  0  0  0  0  0
    7.5756   11.3621   -1.1612 C   0  0  0  0  0  0  0  0  0  0  0  0
    7.1751   10.8369   -2.5297 C   0  0  0  0  0  0  0  0  0  0  0  0
    6.3323    9.6149   -2.1940 C   0  0  0  0  0  0  0  0  0  0  0  0
    5.5895   10.0159   -0.9142 C   0  0  0  0  0  0  0  0  0  0  0  0
    5.4241    8.7786   -0.0281 C   0  0  0  0  0  0  0  0  0  0  0  0
    4.4537    8.0339   -0.0312 O   0  0  0  0  0  0  0  0  0  0  0  0
    6.4942    8.4804    0.7384 O   0  0  0  0  0  0  0  0  0  0  0  0
    6.2058    7.6981    1.2517 H   0  0  0  0  0  0  0  0  0  0  0  0
    6.8766   12.6947    2.8695 C   0  0  0  0  0  0  0  0  0  0  0  0
    6.8523   12.8738    1.3489 C   0  0  0  0  0  0  0  0  0  0  0  0
    6.3541   14.2721    0.9467 C   0  0  0  0  0  0  0  0  0  0  0  0
    7.4130   15.0679   -0.3081 S   0  0  0  0  0  0  0  0  0  0  0  0
    7.1421   14.2132   -1.3052 H   0  0  0  0  0  0  0  0  0  0  0  0
 12 13  1  0  0  0
 13 14  1  0  0  0
 14 15  1  0  0  0
 13  1  1  0  0  0
  1  2  2  0  0  0
  1  3  1  0  0  0
  3  4  1  0  0  0
  4  5  1  0  0  0
  5  6  1  0  0  0
  6  7  1  0  0  0
  7  8  1  0  0  0
  8  9  2  0  0  0
  8 10  1  0  0  0
  7  3  1  0  0  0
 15 16  1  0  0  0
 10 11  1  0  0  0
M  END
> <minimizedAffinity>
-5.88124

$$$$
decoy_caffeine


 14 15  0  0  0  0  0  0  0  0999 V2000
    6.9611   11.9288    1.8151 C   0  0  0  0  0  0  0  0  0  0  0  0
    7.0726   11.9539    0.3788 N   0  0  0  0  0  0  0  0  0  0  0  0
    7.7739   12.8679   -0.3625 C   0  0  0  0  0  0  0  0  0  0  0  0
    7.6811   12.6203   -1.6541 N   0  0  0  0  0  0  0  0  0  0  0  0
    6.8937   11.5114   -1.7308 C   0  0  0  0  0  0  0  0  0  0  0  0
    6.5037   11.0776   -0.5002 C   0  0  0  0  0  0  0  0  0  0  0  0
    5.6773    9.9387   -0.3015 C   0  0  0  0  0  0  0  0  0  0  0  0
    5.3314    9.5561    0.8122 O   0  0  0  0  0  0  0  0  0  0  0  0
    5.3126    9.3191   -1.5005 N   0  0  0  0  0  0  0  0  0  0  0  0
    4.4679    8.1429   -1.4324 C   0  0  0  0  0  0  0  0  0  0  0  0
    5.6955    9.7374   -2.7923 C   0  0  0  0  0  0  0  0  0  0  0  0
    5.3210    9.1218   -3.7951 O   0  0  0  0  0  0  0  0  0  0  0  0
    6.5087   10.8676   -2.8817 N   0  0  0  0  0  0  0  0  0  0  0  0
    6.9470   11.3633   -4.1736 C   0  0  0  0  0  0  0  0  0  0  0  0
  1  2  1  0  0  0
  2  3  1  0  0  0
  3  4  2  0  0  0
  4  5  1  0  0  0
  5  6  2  0  0  0
  6  7  1  0  0  0
  7  8  2  0  0  0
  7  9  1  0  0  0
  9 10  1  0  0  0
  9 11  1  0  0  0
 11 12  2  0  0  0
 11 13  1  0  0  0
 13 14  1  0  0  0
  6  2  1  0  0  0
 13  5  1  0  0  0
M  END
> <minimizedAffinity>
-5.87442

$$$$
decoy_atenolol


 23 23  0  0  0  0  0  0  0  0999 V2000
    6.4641   11.5365    0.2385 C   0  0  0  0  0  0  0  0  0  0  0  0
    7.3043   12.3461   -0.5230 C   0  0  0  0  0  0  0  0  0  0  0  0
    7.4319   13.7068   -0.2233 C   0  0  0  0  0  0  0  0  0  0  0  0
    6.7169   14.2760    0.8387 C   0  0  0  0  0  0  0  0  0  0  0  0
    5.8721   13.4585    1.5996 C   0  0  0  0  0  0  0  0  0  0  0  0
    5.7484   12.1012    1.2964 C   0  0  0  0  0  0  0  0  0  0  0  0
    6.2513   10.1981    0.0550 O   0  0  0  0  0  0  0  0  0  0  0  0
    6.4551    9.6838   -1.2682 C   0  0  0  0  0  0  0  0  0  0  0  0
    5.0766    9.3359   -1.8445 C   0  0  0  0  0  0  0  0  0  0  0  0
    5.1577    9.2401   -3.2736 O   0  0  0  0  0  0  0  0  0  0  0  0
    5.6862   10.0044   -3.5662 H   0  0  0  0  0  0  0  0  0  0  0  0
    4.4783    8.0381   -1.2587 C   0  0  0  0  0  0  0  0  0  0  0  0
    4.5112    7.9691    0.2099 N   0  0  0  0  0  0  0  0  0  0  0  0
    3.6514    8.3436    0.6064 H   0  0  0  0  0  0  0  0  0  0  0  0
    3.4678    5.9481    1.2357 C   0  0  0  0  0  0  0  0  0  0  0  0
    4.7475    6.6144    0.7262 C   0  0  0  0  0  0  0  0  0  0  0  0
    5.7662    6.7168    1.8636 C   0  0  0  0  0  0  0  0  0  0  0  0
    6.8575   15.7452    1.1543 C   0  0  0  0  0  0  0  0  0  0  0  0
    6.3512   16.6401    0.0410 C   0  0  0  0  0  0  0  0  0  0  0  0
    4.9924   16.7110   -0.0869 N   0  0  0  0  0  0  0  0  0  0  0  0
    7.0880   17.2862   -0.6969 O   0  0  0  0  0  0  0  0  0  0  0  0
    4.4224   15.9367    0.2289 H   0  0  0  0  0  0  0  0  0  0  0  0
    4.6629   17.2148   -0.9004 H   0  0  0  0  0  0  0  0  0  0  0  0
 15 16  1  0  0  0
 16 17  1  0  0  0
 16 13  1  0  0  0
 13 12  1  0  0  0
 12  9  1  0  0  0
  9 10  1  0  0  0
  9  8  1  0  0  0
  8  7  1  0  0  0
  7  1  1  0  0  0
  1  2  2  0  0  0
  2  3  1  0  0  0
  3  4  2  0  0  0
  4 18  1  0  0  0
 18 19  1  0  0  0
 19 20  1  0  0  0
 19 21  2  0  0  0
  4  5  1  0  0  0
  5  6  2  0  0  0
  6  1  1  0  0  0
 13 14  1  0  0  0
 10 11  1  0  0  0
 20 22  1  0  0  0
 20 23  1  0  0  0
M  END
> <minimizedAffinity>
-6.29983

$$$$
decoy_aspirin


 14 14  0  0  0  0  0  0  0  0999 V2000
    6.1391    9.6590   -2.5457 C   0  0  0  0  0  0  0  0  0  0  0  0
    5.2221    9.5716   -3.6007 C   0  0  0  0  0  0  0  0  0  0  0  0
    5.2287   10.5342   -4.6086 C   0  0  0  0  0  0  0  0  0  0  0  0
    6.1547   11.5746   -4.5694 C   0  0  0  0  0  0  0  0  0  0  0  0
    7.0815   11.6487   -3.5253 C   0  0  0  0  0  0  0  0  0  0  0  0
    7.0930   10.6848   -2.5031 C   0  0  0  0  0  0  0  0  0  0  0  0
    8.1353   10.8386   -1.4574 C   0  0  0  0  0  0  0  0  0  0  0  0
    8.6284   11.8982   -1.1104 O   0  0  0  0  0  0  0  0  0  0  0  0
    8.5578    9.6878   -0.9070 O   0  0  0  0  0  0  0  0  0  0  0  0
    9.2392    9.9838   -0.2670 H   0  0  0  0  0  0  0  0  0  0  0  0
    6.0762    8.6424   -1.5898 O   0  0  0  0  0  0  0  0  0  0  0  0
    4.2567    7.5893   -0.5394 C   0  0  0  0  0  0  0  0  0  0  0  0
    5.0648    8.8469   -0.6589 C   0  0  0  0  0  0  0  0  0  0  0  0
    4.8382    9.8748   -0.0341 O   0  0  0  0  0  0  0  0  0  0  0  0
 12 13  1  0  0  0
 13 14  2  0  0  0
 13 11  1  0  0  0
 11  1  1  0  0  0
  1  2  2  0  0  0
  2  3  1  0  0  0
  3  4  2  0  0  0
  4  5  1  0  0  0
  5  6  2  0  0  0
  6  7  1  0  0  0
  7  8  2  0  0  0
  7  9  1  0  0  0
  6  1  1  0  0  0
  9 10  1  0  0  0
M  END
> <minimizedAffinity>
-6.54123

$$$$
decoy_amlodipine


 31 32  0  0  0  0  0  0  0  0999 V2000
   10.6204   17.6487    0.5469 C   0  0  0  0  0  0  0  0  0  0  0  0
   11.5078   17.4360    1.5463 C   0  0  0  0  0  0  0  0  0  0  0  0
   11.2598   17.9636    2.8081 N   0  0  0  0  0  0  0  0  0  0  0  0
   10.2265   18.8342    3.1055 C   0  0  0  0  0  0  0  0  0  0  0  0
   10.2834   19.4852    4.4627 C   0  0  0  0  0  0  0  0  0  0  0  0
    9.2784   19.0749    2.1725 C   0  0  0  0  0  0  0  0  0  0  0  0
    9.3284   18.4348    0.7864 C   0  0  0  0  0  0  0  0  0  0  0  0
   12.0603   17.9148    3.4429 H   0  0  0  0  0  0  0  0  0  0  0  0
    8.0981   17.5452    0.5556 C   0  0  0  0  0  0  0  0  0  0  0  0
    7.8784   16.4421    1.4102 C   0  0  0  0  0  0  0  0  0  0  0  0
    6.7773   15.6012    1.2406 C   0  0  0  0  0  0  0  0  0  0  0  0
    5.8689   15.8442    0.2168 C   0  0  0  0  0  0  0  0  0  0  0  0
    6.0618   16.9303   -0.6351 C   0  0  0  0  0  0  0  0  0  0  0  0
    7.1648   17.7774   -0.4704 C   0  0  0  0  0  0  0  0  0  0  0  0
    7.3028   19.0949   -1.5794 Cl  0  0  0  0  0  0  0  0  0  0  0  0
   10.8691   17.0995   -0.8061 C   0  0  0  0  0  0  0  0  0  0  0  0
   11.3158   17.7482   -1.7400 O   0  0  0  0  0  0  0  0  0  0  0  0
   10.5004   15.7978   -0.8474 O   0  0  0  0  0  0  0  0  0  0  0  0
    8.8045   14.2197   -1.5490 C   0  0  0  0  0  0  0  0  0  0  0  0
    9.6503   15.4170   -1.9383 C   0  0  0  0  0  0  0  0  0  0  0  0
    8.1563   20.0077    2.3910 C   0  0  0  0  0  0  0  0  0  0  0  0
    8.0956   21.1190    1.8898 O   0  0  0  0  0  0  0  0  0  0  0  0
    7.2071   19.4190    3.1612 O   0  0  0  0  0  0  0  0  0  0  0  0
    5.8725   19.7545    2.7825 C   0  0  0  0  0  0  0  0  0  0  0  0
   12.8140   16.6743    1.3838 C   0  0  0  0  0  0  0  0  0  0  0  0
   13.3276   16.3611    2.6912 O   0  0  0  0  0  0  0  0  0  0  0  0
   14.0267   15.1112    2.7245 C   0  0  0  0  0  0  0  0  0  0  0  0
   14.7077   14.8540    4.0777 C   0  0  0  0  0  0  0  0  0  0  0  0
   14.2741   15.8081    5.1030 N   0  0  0  0  0  0  0  0  0  0  0  0
   13.2516   15.7906    5.1307 H   0  0  0  0  0  0  0  0  0  0  0  0
   14.5056   16.7535    4.7979 H   0  0  0  0  0  0  0  0  0  0  0  0
 19 20  1  0  0  0
 20 18  1  0  0  0
 18 16  1  0  0  0
 16 17  2  0  0  0
 16  1  1  0  0  0
  1  2  2  0  0  0
  2 25  1  0  0  0
 25 26  1  0  0  0
 26 27  1  0  0  0
 27 28  1  0  0  0
 28 29  1  0  0  0
  2  3  1  0  0  0
  3  4  1  0  0  0
  4  5  1  0  0  0
  4  6  2  0  0  0
  6 21  1  0  0  0
 21 22  2  0  0  0
 21 23  1  0  0  0
 23 24  1  0  0  0
  6  7  1  0  0  0
  7  9  1  0  0  0
  9 10  2  0  0  0
 10 11  1  0  0  0
 11 12  2  0  0  0
 12 13  1  0  0  0
 13 14  2  0  0  0
 14 15  1  0  0  0
  7  1  1  0  0  0
 14  9  1  0  0  0
 29 30  1  0  0  0
 29 31  1  0  0  0
  3  8  1  0  0  0
M  END
> <minimizedAffinity>
-5.07394

$$$$
decoy_albendazole


 20 21  0  0  0  0  0  0  0  0999 V2000
    8.1536   13.4445   -1.3807 C   0  0  0  0  0  0  0  0  0  0  0  0
    8.3596   12.7506   -2.5814 C   0  0  0  0  0  0  0  0  0  0  0  0
    7.9277   11.4288   -2.7520 C   0  0  0  0  0  0  0  0  0  0  0  0
    7.2909   10.8382   -1.6614 C   0  0  0  0  0  0  0  0  0  0  0  0
    6.7515    9.5945   -1.4662 N   0  0  0  0  0  0  0  0  0  0  0  0
    6.2525    9.5378   -0.1894 C   0  0  0  0  0  0  0  0  0  0  0  0
    6.4386   10.6711    0.4460 N   0  0  0  0  0  0  0  0  0  0  0  0
    7.0826   11.4907   -0.4515 C   0  0  0  0  0  0  0  0  0  0  0  0
    7.5241   12.8132   -0.2982 C   0  0  0  0  0  0  0  0  0  0  0  0
    6.7159    8.8297   -2.1280 H   0  0  0  0  0  0  0  0  0  0  0  0
    5.6415    8.4396    0.3478 N   0  0  0  0  0  0  0  0  0  0  0  0
    4.5639    7.8301   -0.2205 C   0  0  0  0  0  0  0  0  0  0  0  0
    4.0076    8.1707   -1.2578 O   0  0  0  0  0  0  0  0  0  0  0  0
    6.0182    8.0699    1.2073 H   0  0  0  0  0  0  0  0  0  0  0  0
    4.1920    6.7728    0.5460 O   0  0  0  0  0  0  0  0  0  0  0  0
    4.9889    6.5893    1.7172 C   0  0  0  0  0  0  0  0  0  0  0  0
    8.7471   15.1262   -1.2513 S   0  0  0  0  0  0  0  0  0  0  0  0
    7.2234   16.0593   -1.6372 C   0  0  0  0  0  0  0  0  0  0  0  0
    7.2870   16.3742    0.8555 C   0  0  0  0  0  0  0  0  0  0  0  0
    6.4019   16.3463   -0.3822 C   0  0  0  0  0  0  0  0  0  0  0  0
 19 20  1  0  0  0
 20 18  1  0  0  0
 18 17  1  0  0  0
 17  1  1  0  0  0
  1  2  2  0  0  0
  2  3  1  0  0  0
  3  4  2  0  0  0
  4  5  1  0  0  0
  5  6  1  0  0  0
  6 11  1  0  0  0
 11 12  1  0  0  0
 12 13  2  0  0  0
 12 15  1  0  0  0
 15 16  1  0  0  0
  6  7  2  0  0  0
  7  8  1  0  0  0
  8  9  2  0  0  0
  9  1  1  0  0  0
  8  4  1  0  0  0
  5 10  1  0  0  0
 11 14  1  0  0  0
M  END
> <minimizedAffinity>
-6.36511

$$$$
decoy_acetaminophen


 13 13  0  0  0  0  0  0  0  0999 V2000
    5.6541    9.1666   -2.5279 C   0  0  0  0  0  0  0  0  0  0  0  0
    4.8675    9.4429   -3.6548 C   0  0  0  0  0  0  0  0  0  0  0  0
    5.2325   10.4537   -4.5477 C   0  0  0  0  0  0  0  0  0  0  0  0
    6.3849   11.1911   -4.3158 C   0  0  0  0  0  0  0  0  0  0  0  0
    6.7068   12.1678   -5.2095 O   0  0  0  0  0  0  0  0  0  0  0  0
    7.1781   10.9335   -3.2045 C   0  0  0  0  0  0  0  0  0  0  0  0
    6.8103    9.9204   -2.3112 C   0  0  0  0  0  0  0  0  0  0  0  0
    7.5307   12.5924   -4.9184 H   0  0  0  0  0  0  0  0  0  0  0  0
    4.4667    6.8963    0.2416 C   0  0  0  0  0  0  0  0  0  0  0  0
    4.8922    8.2242   -0.3346 C   0  0  0  0  0  0  0  0  0  0  0  0
    4.9461    9.2243    0.3718 O   0  0  0  0  0  0  0  0  0  0  0  0
    5.2158    8.1316   -1.6762 N   0  0  0  0  0  0  0  0  0  0  0  0
    5.1385    7.2159   -2.1003 H   0  0  0  0  0  0  0  0  0  0  0  0
  9 10  1  0  0  0
 10 11  2  0  0  0
 10 12  1  0  0  0
 12  1  1  0  0  0
  1  2  2  0  0  0
  2  3  1  0  0  0
  3  4  2  0  0  0
  4  5  1  0  0  0
  4  6  1  0  0  0
  6  7  2  0  0  0
  7  1  1  0  0  0
 12 13  1  0  0  0
  5  8  1  0  0  0
M  END
> <minimizedAffinity>
-6.28660

$$$$
