decoy_warfarin


 24 26  0  0  0  0  0  0  0  0999 V2000
   91.5373  111.7048   87.2085 C   0  0  0  0  0  0  0  0  0  0  0  0
   92.0028  110.7418   86.3917 C   0  0  0  0  0  0  0  0  0  0  0  0
   91.6813  110.7403   85.0473 O   0  0  0  0  0  0  0  0  0  0  0  0
   92.8986  109.6880   86.8743 C   0  0  0  0  0  0  0  0  0  0  0  0
   93.3078  108.5838   86.1139 C   0  0  0  0  0  0  0  0  0  0  0  0
   94.1857  107.6336   86.6501 C   0  0  0  0  0  0  0  0  0  0  0  0
   94.6570  107.7683   87.9552 C   0  0  0  0  0  0  0  0  0  0  0  0
   94.2381  108.8442   88.7315 C   0  0  0  0  0  0  0  0  0  0  0  0
   93.3603  109.7792   88.1828 C   0  0  0  0  0  0  0  0  0  0  0  0
   92.9271  110.8111   89.0288 O   0  0  0  0  0  0  0  0  0  0  0  0
   91.9570  111.7219   88.6336 C   0  0  0  0  0  0  0  0  0  0  0  0
   91.4924  112.5135   89.4469 O   0  0  0  0  0  0  0  0  0  0  0  0
   92.4376  110.3897   84.5473 H   0  0  0  0  0  0  0  0  0  0  0  0
   90.5964  112.8043   86.7162 C   0  0  0  0  0  0  0  0  0  0  0  0
   89.2285  112.2405   86.3273 C   0  0  0  0  0  0  0  0  0  0  0  0
   88.4785  111.4206   87.1844 C   0  0  0  0  0  0  0  0  0  0  0  0
   87.2300  110.9314   86.7930 C   0  0  0  0  0  0  0  0  0  0  0  0
   86.7107  111.2565   85.5427 C   0  0  0  0  0  0  0  0  0  0  0  0
   87.4371  112.0749   84.6825 C   0  0  0  0  0  0  0  0  0  0  0  0
   88.6843  112.5659   85.0726 C   0  0  0  0  0  0  0  0  0  0  0  0
   91.2028  113.7376   85.6499 C   0  0  0  0  0  0  0  0  0  0  0  0
   93.7577  113.9428   85.3182 C   0  0  0  0  0  0  0  0  0  0  0  0
   92.5312  114.2979   86.1169 C   0  0  0  0  0  0  0  0  0  0  0  0
   92.6008  115.0400   87.0976 O   0  0  0  0  0  0  0  0  0  0  0  0
 22 23  1  0  0  0
 23 24  2  0  0  0
 23 21  1  0  0  0
 21 14  1  0  0  0
 14 15  1  0  0  0
 15 16  2  0  0  0
 16 17  1  0  0  0
 17 18  2  0  0  0
 18 19  1  0  0  0
 19 20  2  0  0  0
 14  1  1  0  0  0
  1  2  2  0  0  0
  2  3  1  0  0  0
  2  4  1  0  0  0
  4  5  2  0  0  0
  5  6  1  0  0  0
  6  7  2  0  0  0
  7  8  1  0  0  0
  8  9  2  0  0  0
  9 10  1  0  0  0
 10 11  1  0  0  0
 11 12  2  0  0  0
 20 15  1  0  0  0
 11  1  1  0  0  0
  9  4  1  0  0  0
  3 13  1  0  0  0
M  END
> <minimizedAffinity>
-6.44776

$$$$
decoy_verapamil


 33 34  0  0  0  0  0  0  0  0999 V2000
   90.9256  113.2925   86.8216 C   0  0  0  0  0  0  0  0  0  0  0  0
   92.2187  112.5676   87.2401 C   0  0  0  0  0  0  0  0  0  0  0  0
   91.9593  111.1823   87.8598 C   0  0  0  0  0  0  0  0  0  0  0  0
   93.1082  110.6396   88.5970 N   0  0  0  0  0  0  0  0  0  0  0  0
   94.0279  111.6789   89.0533 C   0  0  0  0  0  0  0  0  0  0  0  0
   93.8020  109.5746   87.8464 C   0  0  0  0  0  0  0  0  0  0  0  0
   94.3327  108.3816   88.6627 C   0  0  0  0  0  0  0  0  0  0  0  0
   96.1945  105.4377   86.0940 C   0  0  0  0  0  0  0  0  0  0  0  0
   96.9771  106.2975   86.8711 C   0  0  0  0  0  0  0  0  0  0  0  0
   96.3724  107.2441   87.7011 C   0  0  0  0  0  0  0  0  0  0  0  0
   94.9789  107.3408   87.7752 C   0  0  0  0  0  0  0  0  0  0  0  0
   94.1921  106.4780   86.9964 C   0  0  0  0  0  0  0  0  0  0  0  0
   94.7893  105.5273   86.1576 C   0  0  0  0  0  0  0  0  0  0  0  0
   97.8532  104.8157   84.4895 C   0  0  0  0  0  0  0  0  0  0  0  0
   96.7013  104.4788   85.2514 O   0  0  0  0  0  0  0  0  0  0  0  0
   94.0939  104.6461   85.3647 O   0  0  0  0  0  0  0  0  0  0  0  0
   92.6898  104.8206   85.2610 C   0  0  0  0  0  0  0  0  0  0  0  0
   90.8266  113.7850   85.3318 C   0  0  0  0  0  0  0  0  0  0  0  0
   89.3959  113.6447   84.7367 C   0  0  0  0  0  0  0  0  0  0  0  0
   88.8258  114.6744   83.9618 C   0  0  0  0  0  0  0  0  0  0  0  0
   87.5228  114.5810   83.4499 C   0  0  0  0  0  0  0  0  0  0  0  0
   86.7316  113.4666   83.7188 C   0  0  0  0  0  0  0  0  0  0  0  0
   87.2567  112.4525   84.5296 C   0  0  0  0  0  0  0  0  0  0  0  0
   88.5694  112.5409   85.0221 C   0  0  0  0  0  0  0  0  0  0  0  0
   85.4495  113.2848   83.2665 O   0  0  0  0  0  0  0  0  0  0  0  0
   84.5964  114.4216   83.2569 C   0  0  0  0  0  0  0  0  0  0  0  0
   86.4592  111.3598   84.7770 O   0  0  0  0  0  0  0  0  0  0  0  0
   86.7418  110.6974   86.0072 C   0  0  0  0  0  0  0  0  0  0  0  0
   91.4745  115.2350   85.1597 C   0  0  0  0  0  0  0  0  0  0  0  0
   91.4145  116.1336   86.4029 C   0  0  0  0  0  0  0  0  0  0  0  0
   92.9414  115.2244   84.6751 C   0  0  0  0  0  0  0  0  0  0  0  0
   91.6798  112.8447   84.5251 C   0  0  0  0  0  0  0  0  0  0  0  0
   92.3463  112.1254   83.9031 N   0  0  0  0  0  0  0  0  0  0  0  0
 14 15  1  0  0  0
 15  8  1  0  0  0
  8  9  2  0  0  0
  9 10  1  0  0  0
 10 11  2  0  0  0
 11  7  1  0  0  0
  7  6  1  0  0  0
  6  4  1  0  0  0
  4  5  1  0  0  0
  4  3  1  0  0  0
  3  2  1  0  0  0
  2  1  1  0  0  0
  1 18  1  0  0  0
 18 32  1  0  0  0
 32 33  3  0  0  0
 18 29  1  0  0  0
 29 30  1  0  0  0
 29 31  1  0  0  0
 18 19  1  0  0  0
 19 20  2  0  0  0
 20 21  1  0  0  0
 21 22  2  0  0  0
 22 25  1  0  0  0
 25 26  1  0  0  0
 22 23  1  0  0  0
 23 27  1  0  0  0
 27 28  1  0  0  0
 23 24  2  0  0  0
 11 12  1  0  0  0
 12 13  2  0  0  0
 13 16  1  0  0  0
 16 17  1  0  0  0
 13  8  1  0  0  0
 24 19  1  0  0  0
M  END
> <minimizedAffinity>
-5.95272

$$$$
decoy_trimethoprim


 25 26  0  0  0  0  0  0  0  0999 V2000
   93.8923  104.0440   85.4174 C   0  0  0  0  0  0  0  0  0  0  0  0
   94.9824  104.8869   86.0107 C   0  0  0  0  0  0  0  0  0  0  0  0
   96.2226  104.3468   86.2900 C   0  0  0  0  0  0  0  0  0  0  0  0
   97.2380  105.0362   86.8401 N   0  0  0  0  0  0  0  0  0  0  0  0
   96.9922  106.3147   87.1254 C   0  0  0  0  0  0  0  0  0  0  0  0
   98.0084  107.0407   87.7149 N   0  0  0  0  0  0  0  0  0  0  0  0
   95.8259  106.9333   86.9230 N   0  0  0  0  0  0  0  0  0  0  0  0
   94.8432  106.2181   86.3573 C   0  0  0  0  0  0  0  0  0  0  0  0
   93.6442  106.9109   86.1733 N   0  0  0  0  0  0  0  0  0  0  0  0
   98.6351  106.4076   88.1929 H   0  0  0  0  0  0  0  0  0  0  0  0
   97.6110  107.7938   88.2590 H   0  0  0  0  0  0  0  0  0  0  0  0
   93.3474  106.8918   85.2032 H   0  0  0  0  0  0  0  0  0  0  0  0
   93.8154  107.8683   86.4787 H   0  0  0  0  0  0  0  0  0  0  0  0
   93.8271  102.2934   82.0324 C   0  0  0  0  0  0  0  0  0  0  0  0
   93.4237  103.0167   83.1542 C   0  0  0  0  0  0  0  0  0  0  0  0
   94.3229  103.2558   84.2010 C   0  0  0  0  0  0  0  0  0  0  0  0
   95.6328  102.7488   84.1094 C   0  0  0  0  0  0  0  0  0  0  0  0
   96.0419  102.0062   82.9959 C   0  0  0  0  0  0  0  0  0  0  0  0
   95.1179  101.7555   81.9691 C   0  0  0  0  0  0  0  0  0  0  0  0
   92.9030  103.1311   80.0911 C   0  0  0  0  0  0  0  0  0  0  0  0
   92.8826  102.0831   81.0610 O   0  0  0  0  0  0  0  0  0  0  0  0
   97.2917  101.4663   82.8337 O   0  0  0  0  0  0  0  0  0  0  0  0
   98.3521  102.3669   82.5409 C   0  0  0  0  0  0  0  0  0  0  0  0
   95.5045  101.0142   80.8774 O   0  0  0  0  0  0  0  0  0  0  0  0
   94.9118   99.7166   80.9468 C   0  0  0  0  0  0  0  0  0  0  0  0
 20 21  1  0  0  0
 21 14  1  0  0  0
 14 15  2  0  0  0
 15 16  1  0  0  0
 16  1  1  0  0  0
  1  2  1  0  0  0
  2  3  2  0  0  0
  3  4  1  0  0  0
  4  5  2  0  0  0
  5  6  1  0  0  0
  5  7  1  0  0  0
  7  8  2  0  0  0
  8  9  1  0  0  0
 16 17  2  0  0  0
 17 18  1  0  0  0
 18 22  1  0  0  0
 22 23  1  0  0  0
 18 19  2  0  0  0
 19 24  1  0  0  0
 24 25  1  0  0  0
 19 14  1  0  0  0
  8  2  1  0  0  0
  6 10  1  0  0  0
  6 11  1  0  0  0
  9 12  1  0  0  0
  9 13  1  0  0  0
M  END
> <minimizedAffinity>
-6.15364

$$$$
decoy_tolbutamide


 20 20  0  0  0  0  0  0  0  0999 V2000
   93.9833  102.3438   82.7420 N   0  0  0  0  0  0  0  0  0  0  0  0
   95.1856  102.6393   83.3169 C   0  0  0  0  0  0  0  0  0  0  0  0
   96.2525  102.1873   82.9380 O   0  0  0  0  0  0  0  0  0  0  0  0
   95.0536  103.5204   84.3740 N   0  0  0  0  0  0  0  0  0  0  0  0
   93.1409  102.6458   83.2042 H   0  0  0  0  0  0  0  0  0  0  0  0
   94.1673  103.9435   84.6079 H   0  0  0  0  0  0  0  0  0  0  0  0
   96.3005  104.0608   85.3284 S   0  0  0  0  0  0  0  0  0  0  0  0
   97.3847  104.5279   84.4945 O   0  0  0  0  0  0  0  0  0  0  0  0
   96.5196  103.0003   86.2932 O   0  0  0  0  0  0  0  0  0  0  0  0
   95.5954  105.4330   86.2038 C   0  0  0  0  0  0  0  0  0  0  0  0
   94.2439  105.7417   86.0376 C   0  0  0  0  0  0  0  0  0  0  0  0
   93.7011  106.8421   86.7030 C   0  0  0  0  0  0  0  0  0  0  0  0
   94.5033  107.6392   87.5309 C   0  0  0  0  0  0  0  0  0  0  0  0
   93.9231  108.8424   88.2148 C   0  0  0  0  0  0  0  0  0  0  0  0
   95.8656  107.3375   87.6630 C   0  0  0  0  0  0  0  0  0  0  0  0
   96.4142  106.2367   87.0021 C   0  0  0  0  0  0  0  0  0  0  0  0
   93.8694  101.3748   81.6720 C   0  0  0  0  0  0  0  0  0  0  0  0
   93.2571  101.9923   80.4166 C   0  0  0  0  0  0  0  0  0  0  0  0
   91.6835  101.6129   78.4860 C   0  0  0  0  0  0  0  0  0  0  0  0
   92.1706  101.0933   79.8291 C   0  0  0  0  0  0  0  0  0  0  0  0
 19 20  1  0  0  0
 20 18  1  0  0  0
 18 17  1  0  0  0
 17  1  1  0  0  0
  1  2  1  0  0  0
  2  3  2  0  0  0
  2  4  1  0  0  0
  4  7  1  0  0  0
  7  8  2  0  0  0
  7  9  2  0  0  0
  7 10  1  0  0  0
 10 11  2  0  0  0
 11 12  1  0  0  0
 12 13  2  0  0  0
 13 14  1  0  0  0
 13 15  1  0  0  0
 15 16  2  0  0  0
 16 10  1  0  0  0
  1  5  1  0  0  0
  4  6  1  0  0  0
M  END
> <minimizedAffinity>
-7.20980

$$$$
decoy_theophylline


 14 15  0  0  0  0  0  0  0  0999 V2000
   95.1097  105.2227   87.2211 C   0  0  0  0  0  0  0  0  0  0  0  0
   95.9309  104.7890   86.1083 N   0  0  0  0  0  0  0  0  0  0  0  0
   95.6723  103.5353   85.5488 C   0  0  0  0  0  0  0  0  0  0  0  0
   94.7985  102.7606   85.9240 O   0  0  0  0  0  0  0  0  0  0  0  0
   96.5413  103.2302   84.4720 C   0  0  0  0  0  0  0  0  0  0  0  0
   96.6154  102.1263   83.6746 N   0  0  0  0  0  0  0  0  0  0  0  0
   97.6381  102.3507   82.7891 C   0  0  0  0  0  0  0  0  0  0  0  0
   98.2055  103.5249   82.9848 N   0  0  0  0  0  0  0  0  0  0  0  0
   97.5192  104.0639   84.0303 C   0  0  0  0  0  0  0  0  0  0  0  0
   97.7370  105.2889   84.6122 N   0  0  0  0  0  0  0  0  0  0  0  0
   98.7908  106.1539   84.1146 C   0  0  0  0  0  0  0  0  0  0  0  0
   96.9342  105.6879   85.6837 C   0  0  0  0  0  0  0  0  0  0  0  0
   97.0868  106.7779   86.2431 O   0  0  0  0  0  0  0  0  0  0  0  0
   96.0267  101.3050   83.7315 H   0  0  0  0  0  0  0  0  0  0  0  0
  1  2  1  0  0  0
  2  3  1  0  0  0
  3  4  2  0  0  0
  3  5  1  0  0  0
  5  6  1  0  0  0
  6  7  1  0  0  0
  7  8  2  0  0  0
  8  9  1  0  0  0
  9 10  1  0  0  0
 10 11  1  0  0  0
 10 12  1  0  0  0
 12 13  2  0  0  0
 12  2  1  0  0  0
  9  5  2  0  0  0
  6 14  1  0  0  0
M  END
> <minimizedAffinity>
-5.29946

$$$$
decoy_sertraline


 21 23  0  0  0  0  0  0  0  0999 V2000
   91.2804  113.0854   88.4221 C   0  0  0  0  0  0  0  0  0  0  0  0
   90.3581  114.2185   87.9362 C   0  0  0  0  0  0  0  0  0  0  0  0
   90.8485  114.7972   86.6143 C   0  0  0  0  0  0  0  0  0  0  0  0
   90.8359  113.7420   85.4962 C   0  0  0  0  0  0  0  0  0  0  0  0
   91.4842  112.4390   85.9396 C   0  0  0  0  0  0  0  0  0  0  0  0
   91.9027  111.5256   84.9516 C   0  0  0  0  0  0  0  0  0  0  0  0
   92.5052  110.3186   85.2997 C   0  0  0  0  0  0  0  0  0  0  0  0
   92.7051  110.0082   86.6388 C   0  0  0  0  0  0  0  0  0  0  0  0
   92.2963  110.9026   87.6283 C   0  0  0  0  0  0  0  0  0  0  0  0
   91.6650  112.1195   87.3025 C   0  0  0  0  0  0  0  0  0  0  0  0
   89.4356  113.5791   84.9031 C   0  0  0  0  0  0  0  0  0  0  0  0
   88.6100  112.4841   85.2008 C   0  0  0  0  0  0  0  0  0  0  0  0
   87.3298  112.3817   84.6487 C   0  0  0  0  0  0  0  0  0  0  0  0
   86.8493  113.3748   83.7929 C   0  0  0  0  0  0  0  0  0  0  0  0
   85.2578  113.1831   83.1491 Cl  0  0  0  0  0  0  0  0  0  0  0  0
   87.6550  114.4755   83.4901 C   0  0  0  0  0  0  0  0  0  0  0  0
   87.1316  115.7481   82.4444 Cl  0  0  0  0  0  0  0  0  0  0  0  0
   88.9371  114.5749   84.0437 C   0  0  0  0  0  0  0  0  0  0  0  0
   89.8298  113.1936   90.3927 C   0  0  0  0  0  0  0  0  0  0  0  0
   90.6665  112.3594   89.5458 N   0  0  0  0  0  0  0  0  0  0  0  0
   90.1294  111.5721   89.1865 H   0  0  0  0  0  0  0  0  0  0  0  0
 19 20  1  0  0  0
 20  1  1  0  0  0
  1  2  1  0  0  0
  2  3  1  0  0  0
  3  4  1  0  0  0
  4 11  1  0  0  0
 11 12  2  0  0  0
 12 13  1  0  0  0
 13 14  2  0  0  0
 14 15  1  0  0  0
 14 16  1  0  0  0
 16 17  1  0  0  0
 16 18  2  0  0  0
  4  5  1  0  0  0
  5  6  2  0  0  0
  6  7  1  0  0  0
  7  8  2  0  0  0
  8  9  1  0  0  0
  9 10  2  0  0  0
 10  1  1  0  0  0
 18 11  1  0  0  0
 10  5  1  0  0  0
 20 21  1  0  0  0
M  END
> <minimizedAffinity>
-5.99603

$$$$
decoy_salbutamol


 21 21  0  0  0  0  0  0  0  0999 V2000
   96.3495  104.4078   85.5612 C   0  0  0  0  0  0  0  0  0  0  0  0
   94.9563  104.2664   85.5826 C   0  0  0  0  0  0  0  0  0  0  0  0
   94.3226  103.4167   84.6790 C   0  0  0  0  0  0  0  0  0  0  0  0
   95.0706  102.7009   83.7450 C   0  0  0  0  0  0  0  0  0  0  0  0
   94.3444  101.9050   82.9030 O   0  0  0  0  0  0  0  0  0  0  0  0
   96.4677  102.8097   83.6963 C   0  0  0  0  0  0  0  0  0  0  0  0
   97.0889  103.6782   84.6146 C   0  0  0  0  0  0  0  0  0  0  0  0
   94.9185  101.5037   82.2356 H   0  0  0  0  0  0  0  0  0  0  0  0
   97.0570  105.3362   86.5333 C   0  0  0  0  0  0  0  0  0  0  0  0
   96.8768  104.8065   87.8510 O   0  0  0  0  0  0  0  0  0  0  0  0
   97.0154  103.8461   87.7829 H   0  0  0  0  0  0  0  0  0  0  0  0
   96.5097  106.7837   86.4472 C   0  0  0  0  0  0  0  0  0  0  0  0
   96.0538  107.4215   87.6999 N   0  0  0  0  0  0  0  0  0  0  0  0
   96.5879  108.2864   87.7952 H   0  0  0  0  0  0  0  0  0  0  0  0
   94.0338  106.6364   88.7593 C   0  0  0  0  0  0  0  0  0  0  0  0
   94.6210  107.7447   87.8526 C   0  0  0  0  0  0  0  0  0  0  0  0
   94.3529  109.0949   88.5353 C   0  0  0  0  0  0  0  0  0  0  0  0
   93.8826  107.6611   86.5075 C   0  0  0  0  0  0  0  0  0  0  0  0
   97.2857  102.0372   82.6918 C   0  0  0  0  0  0  0  0  0  0  0  0
   98.2819  102.8339   82.0639 O   0  0  0  0  0  0  0  0  0  0  0  0
   98.7524  102.2584   81.4382 H   0  0  0  0  0  0  0  0  0  0  0  0
 15 16  1  0  0  0
 16 17  1  0  0  0
 16 18  1  0  0  0
 16 13  1  0  0  0
 13 12  1  0  0  0
 12  9  1  0  0  0
  9 10  1  0  0  0
  9  1  1  0  0  0
  1  2  2  0  0  0
  2  3  1  0  0  0
  3  4  2  0  0  0
  4  5  1  0  0  0
  4  6  1  0  0  0
  6 19  1  0  0  0
 19 20  1  0  0  0
  6  7  2  0  0  0
  7  1  1  0  0  0
 13 14  1  0  0  0
 10 11  1  0  0  0
  5  8  1  0  0  0
 20 21  1  0  0  0
M  END
> <minimizedAffinity>
-6.80614

$$$$
decoy_pyrimethamine


 21 22  0  0  0  0  0  0  0  0999 V2000
   87.7828  114.5202   84.1424 C   0  0  0  0  0  0  0  0  0  0  0  0
   86.6541  115.0323   83.5987 N   0  0  0  0  0  0  0  0  0  0  0  0
   85.6593  114.1882   83.3282 C   0  0  0  0  0  0  0  0  0  0  0  0
   84.5224  114.7136   82.7501 N   0  0  0  0  0  0  0  0  0  0  0  0
   85.6981  112.8737   83.5315 N   0  0  0  0  0  0  0  0  0  0  0  0
   86.8124  112.3813   84.0913 C   0  0  0  0  0  0  0  0  0  0  0  0
   86.8105  110.9926   84.2683 N   0  0  0  0  0  0  0  0  0  0  0  0
   87.9179  113.1621   84.4326 C   0  0  0  0  0  0  0  0  0  0  0  0
   84.0570  113.9991   82.2088 H   0  0  0  0  0  0  0  0  0  0  0  0
   84.7543  115.5758   82.2772 H   0  0  0  0  0  0  0  0  0  0  0  0
   85.8842  110.6543   84.0208 H   0  0  0  0  0  0  0  0  0  0  0  0
   87.0786  110.7317   85.2108 H   0  0  0  0  0  0  0  0  0  0  0  0
   89.1240  112.5881   85.0472 C   0  0  0  0  0  0  0  0  0  0  0  0
   90.2830  112.3635   84.2850 C   0  0  0  0  0  0  0  0  0  0  0  0
   91.4291  111.8174   84.8701 C   0  0  0  0  0  0  0  0  0  0  0  0
   91.4278  111.4945   86.2249 C   0  0  0  0  0  0  0  0  0  0  0  0
   92.8383  110.8235   86.9449 Cl  0  0  0  0  0  0  0  0  0  0  0  0
   90.2921  111.7145   86.9997 C   0  0  0  0  0  0  0  0  0  0  0  0
   89.1467  112.2597   86.4129 C   0  0  0  0  0  0  0  0  0  0  0  0
   89.7330  115.9064   83.2275 C   0  0  0  0  0  0  0  0  0  0  0  0
   88.9012  115.4994   84.4391 C   0  0  0  0  0  0  0  0  0  0  0  0
 20 21  1  0  0  0
 21  1  1  0  0  0
  1  2  2  0  0  0
  2  3  1  0  0  0
  3  4  1  0  0  0
  3  5  2  0  0  0
  5  6  1  0  0  0
  6  7  1  0  0  0
  6  8  2  0  0  0
  8 13  1  0  0  0
 13 14  2  0  0  0
 14 15  1  0  0  0
 15 16  2  0  0  0
 16 17  1  0  0  0
 16 18  1  0  0  0
 18 19  2  0  0  0
  8  1  1  0  0  0
 19 13  1  0  0  0
  4  9  1  0  0  0
  4 10  1  0  0  0
  7 11  1  0  0  0
  7 12  1  0  0  0
M  END
> <minimizedAffinity>
-5.96000

$$$$
decoy_propranolol


 21 22  0  0  0  0  0  0  0  0999 V2000
   96.2121  103.0740   84.8385 O   0  0  0  0  0  0  0  0  0  0  0  0
   95.1092  103.8542   85.0931 C   0  0  0  0  0  0  0  0  0  0  0  0
   93.8308  103.5784   84.5963 C   0  0  0  0  0  0  0  0  0  0  0  0
   92.7596  104.4131   84.9090 C   0  0  0  0  0  0  0  0  0  0  0  0
   92.9546  105.5260   85.7236 C   0  0  0  0  0  0  0  0  0  0  0  0
   94.2232  105.8209   86.2424 C   0  0  0  0  0  0  0  0  0  0  0  0
   94.4139  106.9422   87.0674 C   0  0  0  0  0  0  0  0  0  0  0  0
   95.6719  107.2436   87.5883 C   0  0  0  0  0  0  0  0  0  0  0  0
   96.7564  106.4279   87.2909 C   0  0  0  0  0  0  0  0  0  0  0  0
   96.5820  105.3100   86.4725 C   0  0  0  0  0  0  0  0  0  0  0  0
   95.3196  104.9797   85.9313 C   0  0  0  0  0  0  0  0  0  0  0  0
   97.1255  103.5287   83.8351 C   0  0  0  0  0  0  0  0  0  0  0  0
   97.6630  102.3109   83.0702 C   0  0  0  0  0  0  0  0  0  0  0  0
   98.3131  102.7486   81.8655 O   0  0  0  0  0  0  0  0  0  0  0  0
   97.6423  103.2541   81.3673 H   0  0  0  0  0  0  0  0  0  0  0  0
   96.5446  101.3064   82.7116 C   0  0  0  0  0  0  0  0  0  0  0  0
   95.4382  101.9405   81.9811 N   0  0  0  0  0  0  0  0  0  0  0  0
   95.8288  102.4808   81.2033 H   0  0  0  0  0  0  0  0  0  0  0  0
   94.9516   99.9108   80.6026 C   0  0  0  0  0  0  0  0  0  0  0  0
   94.4065  101.0167   81.5060 C   0  0  0  0  0  0  0  0  0  0  0  0
   93.3616  101.8372   80.7462 C   0  0  0  0  0  0  0  0  0  0  0  0
 19 20  1  0  0  0
 20 21  1  0  0  0
 20 17  1  0  0  0
 17 16  1  0  0  0
 16 13  1  0  0  0
 13 14  1  0  0  0
 13 12  1  0  0  0
 12  1  1  0  0  0
  1  2  1  0  0  0
  2  3  2  0  0  0
  3  4  1  0  0  0
  4  5  2  0  0  0
  5  6  1  0  0  0
  6  7  2  0  0  0
  7  8  1  0  0  0
  8  9  2  0  0  0
  9 10  1  0  0  0
 10 11  2  0  0  0
 11  2  1  0  0  0
 11  6  1  0  0  0
 17 18  1  0  0  0
 14 15  1  0  0  0
M  END
> <minimizedAffinity>
-7.01894

$$$$
decoy_procainamide


 20 20  0  0  0  0  0  0  0  0999 V2000
   95.3474  103.4450   83.9627 N   0  0  0  0  0  0  0  0  0  0  0  0
   95.0488  103.3820   85.3080 C   0  0  0  0  0  0  0  0  0  0  0  0
   94.7123  102.3530   85.8814 O   0  0  0  0  0  0  0  0  0  0  0  0
   95.3964  104.3507   83.5173 H   0  0  0  0  0  0  0  0  0  0  0  0
   95.1214  104.6652   86.0594 C   0  0  0  0  0  0  0  0  0  0  0  0
   94.0076  105.4954   86.2237 C   0  0  0  0  0  0  0  0  0  0  0  0
   94.1279  106.6921   86.9394 C   0  0  0  0  0  0  0  0  0  0  0  0
   95.3620  107.0980   87.4552 C   0  0  0  0  0  0  0  0  0  0  0  0
   95.4453  108.2306   88.2714 N   0  0  0  0  0  0  0  0  0  0  0  0
   96.4586  106.2425   87.3245 C   0  0  0  0  0  0  0  0  0  0  0  0
   96.3496  105.0465   86.6085 C   0  0  0  0  0  0  0  0  0  0  0  0
   96.3818  108.6171   88.3435 H   0  0  0  0  0  0  0  0  0  0  0  0
   94.7520  108.9425   88.0640 H   0  0  0  0  0  0  0  0  0  0  0  0
   95.2118  102.2817   83.0996 C   0  0  0  0  0  0  0  0  0  0  0  0
   93.8296  102.1991   82.4212 C   0  0  0  0  0  0  0  0  0  0  0  0
   93.8928  101.7952   81.0092 N   0  0  0  0  0  0  0  0  0  0  0  0
   95.3104   99.6931   80.6586 C   0  0  0  0  0  0  0  0  0  0  0  0
   93.9372  100.3546   80.7456 C   0  0  0  0  0  0  0  0  0  0  0  0
   92.9691  102.5457   80.1525 C   0  0  0  0  0  0  0  0  0  0  0  0
   92.1655  101.7430   79.1374 C   0  0  0  0  0  0  0  0  0  0  0  0
 17 18  1  0  0  0
 18 16  1  0  0  0
 16 19  1  0  0  0
 19 20  1  0  0  0
 16 15  1  0  0  0
 15 14  1  0  0  0
 14  1  1  0  0  0
  1  2  1  0  0  0
  2  3  2  0  0  0
  2  5  1  0  0  0
  5  6  2  0  0  0
  6  7  1  0  0  0
  7  8  2  0  0  0
  8  9  1  0  0  0
  8 10  1  0  0  0
 10 11  2  0  0  0
 11  5  1  0  0  0
  1  4  1  0  0  0
  9 12  1  0  0  0
  9 13  1  0  0  0
M  END
> <minimizedAffinity>
-6.84978

$$$$
decoy_phenytoin


 21 23  0  0  0  0  0  0  0  0999 V2000
   91.0579  112.3344   83.4027 O   0  0  0  0  0  0  0  0  0  0  0  0
   91.6264  112.2133   84.4727 C   0  0  0  0  0  0  0  0  0  0  0  0
   92.7128  112.9008   84.8770 N   0  0  0  0  0  0  0  0  0  0  0  0
   93.0047  112.6125   86.1755 C   0  0  0  0  0  0  0  0  0  0  0  0
   93.8973  113.1684   86.8045 O   0  0  0  0  0  0  0  0  0  0  0  0
   92.0221  111.5117   86.6897 C   0  0  0  0  0  0  0  0  0  0  0  0
   91.2392  111.3635   85.4714 N   0  0  0  0  0  0  0  0  0  0  0  0
   93.1676  113.6116   84.3315 H   0  0  0  0  0  0  0  0  0  0  0  0
   90.3687  110.8566   85.4105 H   0  0  0  0  0  0  0  0  0  0  0  0
   91.0749  111.9625   87.8116 C   0  0  0  0  0  0  0  0  0  0  0  0
   89.6921  111.7052   87.6939 C   0  0  0  0  0  0  0  0  0  0  0  0
   88.7930  112.1090   88.6830 C   0  0  0  0  0  0  0  0  0  0  0  0
   89.2549  112.7808   89.8097 C   0  0  0  0  0  0  0  0  0  0  0  0
   90.6142  113.0467   89.9479 C   0  0  0  0  0  0  0  0  0  0  0  0
   91.5168  112.6431   88.9592 C   0  0  0  0  0  0  0  0  0  0  0  0
   92.8118  110.2431   87.0431 C   0  0  0  0  0  0  0  0  0  0  0  0
   93.4861  110.0871   88.2682 C   0  0  0  0  0  0  0  0  0  0  0  0
   94.1954  108.9172   88.5535 C   0  0  0  0  0  0  0  0  0  0  0  0
   94.2424  107.8820   87.6239 C   0  0  0  0  0  0  0  0  0  0  0  0
   93.5783  108.0121   86.4081 C   0  0  0  0  0  0  0  0  0  0  0  0
   92.8689  109.1798   86.1205 C   0  0  0  0  0  0  0  0  0  0  0  0
  1  2  2  0  0  0
  2  3  1  0  0  0
  3  4  1  0  0  0
  4  5  2  0  0  0
  4  6  1  0  0  0
  6 10  1  0  0  0
 10 11  2  0  0  0
 11 12  1  0  0  0
 12 13  2  0  0  0
 13 14  1  0  0  0
 14 15  2  0  0  0
  6 16  1  0  0  0
 16 17  2  0  0  0
 17 18  1  0  0  0
 18 19  2  0  0  0
 19 20  1  0  0  0
 20 21  2  0  0  0
  6  7  1  0  0  0
  7  2  1  0  0  0
 15 10  1  0  0  0
 21 16  1  0  0  0
  3  8  1  0  0  0
  7  9  1  0  0  0
M  END
> <minimizedAffinity>
-6.18480

$$$$
decoy_omeprazole


 25 27  0  0  0  0  0  0  0  0999 V2000
   94.7931  107.4746   88.0730 S   0  0  0  0  0  0  0  0  0  0  0  0
   93.9281  106.9336   89.1762 O   0  0  0  0  0  0  0  0  0  0  0  0
   95.6147  102.8010   83.9324 C   0  0  0  0  0  0  0  0  0  0  0  0
   94.2236  102.8849   83.7895 C   0  0  0  0  0  0  0  0  0  0  0  0
   93.4698  103.8196   84.5137 C   0  0  0  0  0  0  0  0  0  0  0  0
   94.1692  104.6522   85.3860 C   0  0  0  0  0  0  0  0  0  0  0  0
   93.7698  105.6569   86.2266 N   0  0  0  0  0  0  0  0  0  0  0  0
   94.8783  106.1379   86.8674 C   0  0  0  0  0  0  0  0  0  0  0  0
   95.9731  105.5189   86.4811 N   0  0  0  0  0  0  0  0  0  0  0  0
   95.5488  104.5925   85.5567 C   0  0  0  0  0  0  0  0  0  0  0  0
   96.2867  103.6583   84.8172 C   0  0  0  0  0  0  0  0  0  0  0  0
   92.8319  106.0093   86.3623 H   0  0  0  0  0  0  0  0  0  0  0  0
   97.7149  102.4084   82.8819 C   0  0  0  0  0  0  0  0  0  0  0  0
   96.4353  101.9267   83.2684 O   0  0  0  0  0  0  0  0  0  0  0  0
   93.8292  108.6297   87.0468 C   0  0  0  0  0  0  0  0  0  0  0  0
   93.4135  109.8582   87.8208 C   0  0  0  0  0  0  0  0  0  0  0  0
   94.1472  110.1229   88.9356 N   0  0  0  0  0  0  0  0  0  0  0  0
   93.8083  111.1930   89.6858 C   0  0  0  0  0  0  0  0  0  0  0  0
   92.7923  112.0765   89.3683 C   0  0  0  0  0  0  0  0  0  0  0  0
   92.4857  113.2202   90.2829 C   0  0  0  0  0  0  0  0  0  0  0  0
   92.1314  111.8568   88.1571 C   0  0  0  0  0  0  0  0  0  0  0  0
   92.3994  110.7199   87.3751 C   0  0  0  0  0  0  0  0  0  0  0  0
   91.6223  110.4375   86.1197 C   0  0  0  0  0  0  0  0  0  0  0  0
   91.1556  112.7382   87.7552 O   0  0  0  0  0  0  0  0  0  0  0  0
   89.8855  112.3246   88.2691 C   0  0  0  0  0  0  0  0  0  0  0  0
 13 14  1  0  0  0
 14  3  1  0  0  0
  3  4  2  0  0  0
  4  5  1  0  0  0
  5  6  2  0  0  0
  6  7  1  0  0  0
  7  8  1  0  0  0
  8  1  1  0  0  0
  1  2  2  0  0  0
  1 15  1  0  0  0
 15 16  1  0  0  0
 16 17  2  0  0  0
 17 18  1  0  0  0
 18 19  2  0  0  0
 19 20  1  0  0  0
 19 21  1  0  0  0
 21 24  1  0  0  0
 24 25  1  0  0  0
 21 22  2  0  0  0
 22 23  1  0  0  0
  8  9  2  0  0  0
  9 10  1  0  0  0
 10 11  2  0  0  0
 11  3  1  0  0  0
 10  6  1  0  0  0
 22 16  1  0  0  0
  7 12  1  0  0  0
M  END
> <minimizedAffinity>
-6.76873

$$$$
decoy_nicotine


 12 13  0  0  0  0  0  0  0  0999 V2000
   98.0191  104.7026   84.4497 C   0  0  0  0  0  0  0  0  0  0  0  0
   96.6203  104.2949   84.4058 N   0  0  0  0  0  0  0  0  0  0  0  0
   96.4410  103.0185   83.7149 C   0  0  0  0  0  0  0  0  0  0  0  0
   95.0127  102.6634   84.0775 C   0  0  0  0  0  0  0  0  0  0  0  0
   94.8663  103.1352   85.5187 C   0  0  0  0  0  0  0  0  0  0  0  0
   96.0311  104.1138   85.7458 C   0  0  0  0  0  0  0  0  0  0  0  0
   95.5728  105.4007   86.3842 C   0  0  0  0  0  0  0  0  0  0  0  0
   94.2606  105.8580   86.2220 C   0  0  0  0  0  0  0  0  0  0  0  0
   93.8684  107.0626   86.7999 C   0  0  0  0  0  0  0  0  0  0  0  0
   94.8065  107.7811   87.5213 C   0  0  0  0  0  0  0  0  0  0  0  0
   96.0826  107.3817   87.6977 N   0  0  0  0  0  0  0  0  0  0  0  0
   96.4343  106.2040   87.1283 C   0  0  0  0  0  0  0  0  0  0  0  0
  1  2  1  0  0  0
  2  3  1  0  0  0
  3  4  1  0  0  0
  4  5  1  0  0  0
  5  6  1  0  0  0
  6  7  1  0  0  0
  7  8  2  0  0  0
  8  9  1  0  0  0
  9 10  2  0  0  0
 10 11  1  0  0  0
 11 12  2  0  0  0
  6  2  1  0  0  0
 12  7  1  0  0  0
M  END
> <minimizedAffinity>
-5.55333

$$$$
decoy_naproxen


 18 19  0  0  0  0  0  0  0  0999 V2000
   95.5396  105.1608   86.4686 C   0  0  0  0  0  0  0  0  0  0  0  0
   94.1806  105.3660   86.2426 C   0  0  0  0  0  0  0  0  0  0  0  0
   93.5258  104.6689   85.2211 C   0  0  0  0  0  0  0  0  0  0  0  0
   94.2181  103.7568   84.4096 C   0  0  0  0  0  0  0  0  0  0  0  0
   93.5722  103.0501   83.3797 C   0  0  0  0  0  0  0  0  0  0  0  0
   94.2694  102.1389   82.5698 C   0  0  0  0  0  0  0  0  0  0  0  0
   95.6351  101.9382   82.8087 C   0  0  0  0  0  0  0  0  0  0  0  0
   96.2889  102.6339   83.8285 C   0  0  0  0  0  0  0  0  0  0  0  0
   95.5941  103.5462   84.6359 C   0  0  0  0  0  0  0  0  0  0  0  0
   96.2369  104.2536   85.6655 C   0  0  0  0  0  0  0  0  0  0  0  0
   96.5073  107.1729   87.2863 C   0  0  0  0  0  0  0  0  0  0  0  0
   96.2975  105.7738   87.4287 O   0  0  0  0  0  0  0  0  0  0  0  0
   93.5410  101.3924   81.4668 C   0  0  0  0  0  0  0  0  0  0  0  0
   92.9778  102.3432   80.4083 C   0  0  0  0  0  0  0  0  0  0  0  0
   94.4260  100.3446   80.8173 C   0  0  0  0  0  0  0  0  0  0  0  0
   94.7212   99.2486   81.2674 O   0  0  0  0  0  0  0  0  0  0  0  0
   94.8871  100.7274   79.6077 O   0  0  0  0  0  0  0  0  0  0  0  0
   95.3954   99.9513   79.2918 H   0  0  0  0  0  0  0  0  0  0  0  0
 11 12  1  0  0  0
 12  1  1  0  0  0
  1  2  2  0  0  0
  2  3  1  0  0  0
  3  4  2  0  0  0
  4  5  1  0  0  0
  5  6  2  0  0  0
  6 13  1  0  0  0
 13 14  1  0  0  0
 13 15  1  0  0  0
 15 16  2  0  0  0
 15 17  1  0  0  0
  6  7  1  0  0  0
  7  8  2  0  0  0
  8  9  1  0  0  0
  9 10  2  0  0  0
 10  1  1  0  0  0
  9  4  1  0  0  0
 17 18  1  0  0  0
M  END
> <minimizedAffinity>
-6.95562

$$$$
decoy_metronidazole


 13 13  0  0  0  0  0  0  0  0999 V2000
   95.7140  102.7205   84.1804 C   0  0  0  0  0  0  0  0  0  0  0  0
   94.8095  103.7473   84.7616 C   0  0  0  0  0  0  0  0  0  0  0  0
   93.5056  103.8008   84.5631 N   0  0  0  0  0  0  0  0  0  0  0  0
   93.0593  104.8911   85.2623 C   0  0  0  0  0  0  0  0  0  0  0  0
   94.1040  105.4928   85.9128 C   0  0  0  0  0  0  0  0  0  0  0  0
   95.2311  104.7890   85.5749 N   0  0  0  0  0  0  0  0  0  0  0  0
   94.0581  106.6348   86.7540 N   0  0  0  0  0  0  0  0  0  0  0  0
   94.2632  106.4633   87.9609 O   0  0  0  0  0  0  0  0  0  0  0  0
   93.7490  107.7036   86.2136 O   0  0  0  0  0  0  0  0  0  0  0  0
   96.6183  105.0863   85.8973 C   0  0  0  0  0  0  0  0  0  0  0  0
   97.0793  104.3721   87.1651 C   0  0  0  0  0  0  0  0  0  0  0  0
   95.9586  103.8759   87.8857 O   0  0  0  0  0  0  0  0  0  0  0  0
   96.2945  103.4046   88.6692 H   0  0  0  0  0  0  0  0  0  0  0  0
  1  2  1  0  0  0
  2  3  2  0  0  0
  3  4  1  0  0  0
  4  5  2  0  0  0
  5  7  1  0  0  0
  7  8  2  0  0  0
  7  9  1  0  0  0
  5  6  1  0  0  0
  6 10  1  0  0  0
 10 11  1  0  0  0
 11 12  1  0  0  0
  6  2  1  0  0  0
 12 13  1  0  0  0
M  CHG 1   7   1
M  CHG 1   9  -1
M  END
> <minimizedAffinity>
-4.68752

$$$$
decoy_metoprolol


 21 21  0  0  0  0  0  0  0  0999 V2000
   94.1378  101.8042   82.5995 O   0  0  0  0  0  0  0  0  0  0  0  0
   95.3420  104.4112   85.6368 C   0  0  0  0  0  0  0  0  0  0  0  0
   93.9914  104.3845   85.2670 C   0  0  0  0  0  0  0  0  0  0  0  0
   93.5439  103.5275   84.2542 C   0  0  0  0  0  0  0  0  0  0  0  0
   94.4417  102.6838   83.6013 C   0  0  0  0  0  0  0  0  0  0  0  0
   95.7884  102.7078   83.9677 C   0  0  0  0  0  0  0  0  0  0  0  0
   96.2371  103.5622   84.9772 C   0  0  0  0  0  0  0  0  0  0  0  0
   95.8246  105.3324   86.7346 C   0  0  0  0  0  0  0  0  0  0  0  0
   95.1710  106.7148   86.6786 C   0  0  0  0  0  0  0  0  0  0  0  0
   94.7264  108.1725   88.4792 C   0  0  0  0  0  0  0  0  0  0  0  0
   95.7339  107.5588   87.6867 O   0  0  0  0  0  0  0  0  0  0  0  0
   95.2272  101.3124   81.8121 C   0  0  0  0  0  0  0  0  0  0  0  0
   94.6587  100.5490   80.6074 C   0  0  0  0  0  0  0  0  0  0  0  0
   95.5570   99.4869   80.2446 O   0  0  0  0  0  0  0  0  0  0  0  0
   95.7159   98.9800   81.0644 H   0  0  0  0  0  0  0  0  0  0  0  0
   93.2644   99.9525   80.9007 C   0  0  0  0  0  0  0  0  0  0  0  0
   92.1685  100.7867   80.3753 N   0  0  0  0  0  0  0  0  0  0  0  0
   91.4848  100.1402   79.9676 H   0  0  0  0  0  0  0  0  0  0  0  0
   92.5866  101.7470   79.3464 C   0  0  0  0  0  0  0  0  0  0  0  0
   91.5671  101.7069   78.2039 C   0  0  0  0  0  0  0  0  0  0  0  0
   92.6647  103.1669   79.9100 C   0  0  0  0  0  0  0  0  0  0  0  0
 10 11  1  0  0  0
 11  9  1  0  0  0
  9  8  1  0  0  0
  8  2  1  0  0  0
  2  3  2  0  0  0
  3  4  1  0  0  0
  4  5  2  0  0  0
  5  1  1  0  0  0
  1 12  1  0  0  0
 12 13  1  0  0  0
 13 14  1  0  0  0
 13 16  1  0  0  0
 16 17  1  0  0  0
 17 19  1  0  0  0
 19 20  1  0  0  0
 19 21  1  0  0  0
  5  6  1  0  0  0
  6  7  2  0  0  0
  7  2  1  0  0  0
 14 15  1  0  0  0
 17 18  1  0  0  0
M  END
> <minimizedAffinity>
-6.80575

$$$$
decoy_loratadine


 27 30  0  0  0  0  0  0  0  0999 V2000
   88.3049  114.2191   91.1835 C   0  0  0  0  0  0  0  0  0  0  0  0
   87.9743  113.6038   92.1901 O   0  0  0  0  0  0  0  0  0  0  0  0
   89.4952  114.0243   90.5117 N   0  0  0  0  0  0  0  0  0  0  0  0
   90.4265  113.0004   90.9650 C   0  0  0  0  0  0  0  0  0  0  0  0
   91.1178  112.2949   89.7917 C   0  0  0  0  0  0  0  0  0  0  0  0
   91.8337  113.2564   88.8452 C   0  0  0  0  0  0  0  0  0  0  0  0
   92.7580  112.8578   87.9256 C   0  0  0  0  0  0  0  0  0  0  0  0
   93.0580  111.4141   87.7656 C   0  0  0  0  0  0  0  0  0  0  0  0
   93.8464  110.7242   88.6957 C   0  0  0  0  0  0  0  0  0  0  0  0
   94.1196  109.3676   88.5152 C   0  0  0  0  0  0  0  0  0  0  0  0
   93.6180  108.7050   87.3969 C   0  0  0  0  0  0  0  0  0  0  0  0
   93.9567  107.0327   87.1734 Cl  0  0  0  0  0  0  0  0  0  0  0  0
   92.8561  109.3880   86.4485 C   0  0  0  0  0  0  0  0  0  0  0  0
   92.5790  110.7513   86.6217 C   0  0  0  0  0  0  0  0  0  0  0  0
   91.8174  111.5302   85.5775 C   0  0  0  0  0  0  0  0  0  0  0  0
   92.7184  112.5290   84.8386 C   0  0  0  0  0  0  0  0  0  0  0  0
   93.3576  113.6741   85.5993 C   0  0  0  0  0  0  0  0  0  0  0  0
   94.0182  114.6523   84.8345 C   0  0  0  0  0  0  0  0  0  0  0  0
   94.6620  115.7192   85.4497 C   0  0  0  0  0  0  0  0  0  0  0  0
   94.6368  115.7829   86.8272 C   0  0  0  0  0  0  0  0  0  0  0  0
   94.0197  114.8713   87.6046 N   0  0  0  0  0  0  0  0  0  0  0  0
   93.3852  113.8336   86.9924 C   0  0  0  0  0  0  0  0  0  0  0  0
   91.3607  114.7002   88.9933 C   0  0  0  0  0  0  0  0  0  0  0  0
   89.8682  114.7983   89.3314 C   0  0  0  0  0  0  0  0  0  0  0  0
   87.5315  115.1724   90.5939 O   0  0  0  0  0  0  0  0  0  0  0  0
   88.2159  117.1615   91.7235 C   0  0  0  0  0  0  0  0  0  0  0  0
   87.0723  116.1949   91.4847 C   0  0  0  0  0  0  0  0  0  0  0  0
 26 27  1  0  0  0
 27 25  1  0  0  0
 25  1  1  0  0  0
  1  2  2  0  0  0
  1  3  1  0  0  0
  3  4  1  0  0  0
  4  5  1  0  0  0
  5  6  1  0  0  0
  6  7  2  0  0  0
  7  8  1  0  0  0
  8  9  2  0  0  0
  9 10  1  0  0  0
 10 11  2  0  0  0
 11 12  1  0  0  0
 11 13  1  0  0  0
 13 14  2  0  0  0
 14 15  1  0  0  0
 15 16  1  0  0  0
 16 17  1  0  0  0
 17 18  2  0  0  0
 18 19  1  0  0  0
 19 20  2  0  0  0
 20 21  1  0  0  0
 21 22  2  0  0  0
  6 23  1  0  0  0
 23 24  1  0  0  0
 24  3  1  0  0  0
 22  7  1  0  0  0
 14  8  1  0  0  0
 22 17  1  0  0  0
M  END
> <minimizedAffinity>
-5.67870

$$$$
decoy_lidocaine


 18 18  0  0  0  0  0  0  0  0999 V2000
   95.1439  107.1160   87.1133 C   0  0  0  0  0  0  0  0  0  0  0  0
   95.9969  107.5442   86.3438 O   0  0  0  0  0  0  0  0  0  0  0  0
   94.5129  105.8828   87.0697 N   0  0  0  0  0  0  0  0  0  0  0  0
   94.1405  105.6394   87.9842 H   0  0  0  0  0  0  0  0  0  0  0  0
   94.7362  104.8343   86.1494 C   0  0  0  0  0  0  0  0  0  0  0  0
   93.6984  104.5525   85.2244 C   0  0  0  0  0  0  0  0  0  0  0  0
   92.3985  105.3151   85.2148 C   0  0  0  0  0  0  0  0  0  0  0  0
   93.8484  103.5017   84.3041 C   0  0  0  0  0  0  0  0  0  0  0  0
   95.0100  102.7412   84.2801 C   0  0  0  0  0  0  0  0  0  0  0  0
   96.0476  103.0439   85.1541 C   0  0  0  0  0  0  0  0  0  0  0  0
   95.9432  104.1066   86.0729 C   0  0  0  0  0  0  0  0  0  0  0  0
   97.1761  104.4125   86.8800 C   0  0  0  0  0  0  0  0  0  0  0  0
   94.6385  107.9652   88.2900 C   0  0  0  0  0  0  0  0  0  0  0  0
   94.1128  109.2771   87.8136 N   0  0  0  0  0  0  0  0  0  0  0  0
   92.2464  110.3128   86.4947 C   0  0  0  0  0  0  0  0  0  0  0  0
   93.0704  109.0635   86.7890 C   0  0  0  0  0  0  0  0  0  0  0  0
   93.6698  110.1031   88.9511 C   0  0  0  0  0  0  0  0  0  0  0  0
   94.5321  111.3146   89.2944 C   0  0  0  0  0  0  0  0  0  0  0  0
 15 16  1  0  0  0
 16 14  1  0  0  0
 14 17  1  0  0  0
 17 18  1  0  0  0
 14 13  1  0  0  0
 13  1  1  0  0  0
  1  2  2  0  0  0
  1  3  1  0  0  0
  3  5  1  0  0  0
  5  6  2  0  0  0
  6  7  1  0  0  0
  6  8  1  0  0  0
  8  9  2  0  0  0
  9 10  1  0  0  0
 10 11  2  0  0  0
 11 12  1  0  0  0
 11  5  1  0  0  0
  3  4  1  0  0  0
M  END
> <minimizedAffinity>
-5.16803

$$$$
decoy_ketoprofen


 20 21  0  0  0  0  0  0  0  0999 V2000
   95.8335  104.0193   85.1560 C   0  0  0  0  0  0  0  0  0  0  0  0
   94.5460  104.4320   85.5332 C   0  0  0  0  0  0  0  0  0  0  0  0
   93.4186  103.9848   84.8407 C   0  0  0  0  0  0  0  0  0  0  0  0
   93.5573  103.1068   83.7665 C   0  0  0  0  0  0  0  0  0  0  0  0
   94.8293  102.6649   83.3909 C   0  0  0  0  0  0  0  0  0  0  0  0
   95.9609  103.1337   84.0729 C   0  0  0  0  0  0  0  0  0  0  0  0
   96.9811  104.2454   87.3922 C   0  0  0  0  0  0  0  0  0  0  0  0
   97.0783  104.5010   85.8879 C   0  0  0  0  0  0  0  0  0  0  0  0
   97.3958  105.9671   85.6429 C   0  0  0  0  0  0  0  0  0  0  0  0
   96.9017  106.9456   86.1782 O   0  0  0  0  0  0  0  0  0  0  0  0
   98.3833  106.1304   84.7346 O   0  0  0  0  0  0  0  0  0  0  0  0
   98.4841  107.1038   84.6719 H   0  0  0  0  0  0  0  0  0  0  0  0
   95.0286  101.7390   82.2464 C   0  0  0  0  0  0  0  0  0  0  0  0
   96.1208  101.1966   82.0966 O   0  0  0  0  0  0  0  0  0  0  0  0
   93.9393  101.4504   81.2800 C   0  0  0  0  0  0  0  0  0  0  0  0
   93.4616  102.4964   80.4820 C   0  0  0  0  0  0  0  0  0  0  0  0
   92.4463  102.2603   79.5541 C   0  0  0  0  0  0  0  0  0  0  0  0
   91.9161  100.9781   79.4124 C   0  0  0  0  0  0  0  0  0  0  0  0
   92.4049   99.9280   80.1903 C   0  0  0  0  0  0  0  0  0  0  0  0
   93.4206  100.1596   81.1203 C   0  0  0  0  0  0  0  0  0  0  0  0
  7  8  1  0  0  0
  8  9  1  0  0  0
  9 10  2  0  0  0
  9 11  1  0  0  0
  8  1  1  0  0  0
  1  2  2  0  0  0
  2  3  1  0  0  0
  3  4  2  0  0  0
  4  5  1  0  0  0
  5 13  1  0  0  0
 13 14  2  0  0  0
 13 15  1  0  0  0
 15 16  2  0  0  0
 16 17  1  0  0  0
 17 18  2  0  0  0
 18 19  1  0  0  0
 19 20  2  0  0  0
  5  6  2  0  0  0
  6  1  1  0  0  0
 20 15  1  0  0  0
 11 12  1  0  0  0
M  END
> <minimizedAffinity>
-7.76128

$$$$
decoy_indomethacin


 26 28  0  0  0  0  0  0  0  0999 V2000
   87.5529  111.2467   87.0741 C   0  0  0  0  0  0  0  0  0  0  0  0
   87.5329  111.4170   88.4532 C   0  0  0  0  0  0  0  0  0  0  0  0
   88.6104  111.9926   89.1349 C   0  0  0  0  0  0  0  0  0  0  0  0
   89.7279  112.4293   88.3964 C   0  0  0  0  0  0  0  0  0  0  0  0
   89.7884  112.2212   87.0164 C   0  0  0  0  0  0  0  0  0  0  0  0
   88.6811  111.6392   86.3516 C   0  0  0  0  0  0  0  0  0  0  0  0
   91.0729  112.6443   86.5666 C   0  0  0  0  0  0  0  0  0  0  0  0
   91.7718  113.0853   87.6809 C   0  0  0  0  0  0  0  0  0  0  0  0
   93.1821  113.5776   87.7618 C   0  0  0  0  0  0  0  0  0  0  0  0
   90.9182  113.0562   88.7894 N   0  0  0  0  0  0  0  0  0  0  0  0
   91.2150  113.5687   90.0821 C   0  0  0  0  0  0  0  0  0  0  0  0
   92.3962  113.6957   90.4026 O   0  0  0  0  0  0  0  0  0  0  0  0
   90.2103  114.0082   91.0774 C   0  0  0  0  0  0  0  0  0  0  0  0
   89.9393  113.2317   92.2116 C   0  0  0  0  0  0  0  0  0  0  0  0
   88.9656  113.6511   93.1218 C   0  0  0  0  0  0  0  0  0  0  0  0
   88.2564  114.8296   92.8873 C   0  0  0  0  0  0  0  0  0  0  0  0
   87.0592  115.3420   94.0108 Cl  0  0  0  0  0  0  0  0  0  0  0  0
   88.5051  115.5914   91.7455 C   0  0  0  0  0  0  0  0  0  0  0  0
   89.4781  115.1766   90.8332 C   0  0  0  0  0  0  0  0  0  0  0  0
   86.3847  110.5012   85.1415 C   0  0  0  0  0  0  0  0  0  0  0  0
   86.4259  110.6722   86.5528 O   0  0  0  0  0  0  0  0  0  0  0  0
   91.5641  112.5781   85.1532 C   0  0  0  0  0  0  0  0  0  0  0  0
   92.3597  111.3248   84.8952 C   0  0  0  0  0  0  0  0  0  0  0  0
   92.4347  110.3458   85.6206 O   0  0  0  0  0  0  0  0  0  0  0  0
   93.0228  111.3506   83.7191 O   0  0  0  0  0  0  0  0  0  0  0  0
   93.4455  110.4667   83.6765 H   0  0  0  0  0  0  0  0  0  0  0  0
 20 21  1  0  0  0
 21  1  1  0  0  0
  1  2  2  0  0  0
  2  3  1  0  0  0
  3  4  2  0  0  0
  4  5  1  0  0  0
  5  6  2  0  0  0
  5  7  1  0  0  0
  7 22  1  0  0  0
 22 23  1  0  0  0
 23 24  2  0  0  0
 23 25  1  0  0  0
  7  8  2  0  0  0
  8  9  1  0  0  0
  8 10  1  0  0  0
 10 11  1  0  0  0
 11 12  2  0  0  0
 11 13  1  0  0  0
 13 14  2  0  0  0
 14 15  1  0  0  0
 15 16  2  0  0  0
 16 17  1  0  0  0
 16 18  1  0  0  0
 18 19  2  0  0  0
  6  1  1  0  0  0
 19 13  1  0  0  0
 10  4  1  0  0  0
 25 26  1  0  0  0
M  END
> <minimizedAffinity>
-5.79935

$$$$
decoy_ibuprofen


 16 16  0  0  0  0  0  0  0  0999 V2000
   95.5069  103.6719   85.0254 C   0  0  0  0  0  0  0  0  0  0  0  0
   94.1178  103.7406   84.8699 C   0  0  0  0  0  0  0  0  0  0  0  0
   93.4860  103.0880   83.8077 C   0  0  0  0  0  0  0  0  0  0  0  0
   94.2282  102.3484   82.8751 C   0  0  0  0  0  0  0  0  0  0  0  0
   95.6189  102.2775   83.0377 C   0  0  0  0  0  0  0  0  0  0  0  0
   96.2497  102.9291   84.1010 C   0  0  0  0  0  0  0  0  0  0  0  0
   93.5194  101.6584   81.7200 C   0  0  0  0  0  0  0  0  0  0  0  0
   92.9858  102.6627   80.6980 C   0  0  0  0  0  0  0  0  0  0  0  0
   94.3825  100.6296   81.0095 C   0  0  0  0  0  0  0  0  0  0  0  0
   94.6907   99.5112   81.3868 O   0  0  0  0  0  0  0  0  0  0  0  0
   94.8737  101.0964   79.8394 O   0  0  0  0  0  0  0  0  0  0  0  0
   95.4101  100.3485   79.5009 H   0  0  0  0  0  0  0  0  0  0  0  0
   96.1896  104.3759   86.1734 C   0  0  0  0  0  0  0  0  0  0  0  0
   97.1287  106.7353   86.5006 C   0  0  0  0  0  0  0  0  0  0  0  0
   95.8733  105.8769   86.3406 C   0  0  0  0  0  0  0  0  0  0  0  0
   94.8877  106.1543   87.4765 C   0  0  0  0  0  0  0  0  0  0  0  0
 14 15  1  0  0  0
 15 16  1  0  0  0
 15 13  1  0  0  0
 13  1  1  0  0  0
  1  2  2  0  0  0
  2  3  1  0  0  0
  3  4  2  0  0  0
  4  7  1  0  0  0
  7  8  1  0  0  0
  7  9  1  0  0  0
  9 10  2  0  0  0
  9 11  1  0  0  0
  4  5  1  0  0  0
  5  6  2  0  0  0
  6  1  1  0  0  0
 11 12  1  0  0  0
M  END
> <minimizedAffinity>
-6.47152

$$$$
decoy_hydrochlorothiazide


 21 22  0  0  0  0  0  0  0  0999 V2000
   90.8471  112.4471   88.3513 C   0  0  0  0  0  0  0  0  0  0  0  0
   89.6165  112.8992   88.8424 C   0  0  0  0  0  0  0  0  0  0  0  0
   89.4797  113.1625   90.2093 C   0  0  0  0  0  0  0  0  0  0  0  0
   90.5206  112.9654   91.1160 C   0  0  0  0  0  0  0  0  0  0  0  0
   91.7452  112.5224   90.5972 C   0  0  0  0  0  0  0  0  0  0  0  0
   91.9176  112.2594   89.2274 C   0  0  0  0  0  0  0  0  0  0  0  0
   93.4773  111.6975   88.7421 Cl  0  0  0  0  0  0  0  0  0  0  0  0
   90.4349  113.2570   92.4743 N   0  0  0  0  0  0  0  0  0  0  0  0
   89.2358  113.8222   93.0441 C   0  0  0  0  0  0  0  0  0  0  0  0
   88.0601  113.2205   92.4607 N   0  0  0  0  0  0  0  0  0  0  0  0
   87.9130  113.6357   90.8391 S   0  0  0  0  0  0  0  0  0  0  0  0
   86.9041  112.7654   90.2793 O   0  0  0  0  0  0  0  0  0  0  0  0
   87.8048  115.0749   90.7643 O   0  0  0  0  0  0  0  0  0  0  0  0
   90.8834  112.5642   93.0679 H   0  0  0  0  0  0  0  0  0  0  0  0
   87.1993  113.4689   92.9446 H   0  0  0  0  0  0  0  0  0  0  0  0
   91.2652  110.4944   86.5377 N   0  0  0  0  0  0  0  0  0  0  0  0
   90.9993  112.1488   86.6190 S   0  0  0  0  0  0  0  0  0  0  0  0
   89.7080  112.3434   85.9989 O   0  0  0  0  0  0  0  0  0  0  0  0
   92.1847  112.8022   86.1211 O   0  0  0  0  0  0  0  0  0  0  0  0
   92.1968  110.3106   86.1616 H   0  0  0  0  0  0  0  0  0  0  0  0
   90.5126  110.0478   86.0118 H   0  0  0  0  0  0  0  0  0  0  0  0
 16 17  1  0  0  0
 17 18  2  0  0  0
 17 19  2  0  0  0
 17  1  1  0  0  0
  1  2  2  0  0  0
  2  3  1  0  0  0
  3  4  2  0  0  0
  4  5  1  0  0  0
  5  6  2  0  0  0
  6  7  1  0  0  0
  4  8  1  0  0  0
  8  9  1  0  0  0
  9 10  1  0  0  0
 10 11  1  0  0  0
 11 12  2  0  0  0
 11 13  2  0  0  0
  6  1  1  0  0  0
 11  3  1  0  0  0
 16 20  1  0  0  0
 16 21  1  0  0  0
  8 14  1  0  0  0
 10 15  1  0  0  0
M  END
> <minimizedAffinity>
-5.24290

$$$$
decoy_haloperidol


 27 29  0  0  0  0  0  0  0  0999 V2000
   95.7934  104.8848   85.9815 N   0  0  0  0  0  0  0  0  0  0  0  0
   96.3191  106.2278   85.7582 C   0  0  0  0  0  0  0  0  0  0  0  0
   95.9155  107.1672   86.9025 C   0  0  0  0  0  0  0  0  0  0  0  0
   94.4125  107.0970   87.2588 C   0  0  0  0  0  0  0  0  0  0  0  0
   94.2793  106.4290   88.5286 O   0  0  0  0  0  0  0  0  0  0  0  0
   93.6645  106.2355   86.2318 C   0  0  0  0  0  0  0  0  0  0  0  0
   94.3232  104.8629   86.0426 C   0  0  0  0  0  0  0  0  0  0  0  0
   93.4182  106.6827   88.9024 H   0  0  0  0  0  0  0  0  0  0  0  0
   93.8416  108.5060   87.4651 C   0  0  0  0  0  0  0  0  0  0  0  0
   93.0153  109.0605   86.4644 C   0  0  0  0  0  0  0  0  0  0  0  0
   92.4692  110.3396   86.5973 C   0  0  0  0  0  0  0  0  0  0  0  0
   92.7419  111.0882   87.7362 C   0  0  0  0  0  0  0  0  0  0  0  0
   92.0736  112.6636   87.9076 Cl  0  0  0  0  0  0  0  0  0  0  0  0
   93.5555  110.5676   88.7381 C   0  0  0  0  0  0  0  0  0  0  0  0
   94.1023  109.2859   88.6033 C   0  0  0  0  0  0  0  0  0  0  0  0
   96.2955  103.8800   85.0336 C   0  0  0  0  0  0  0  0  0  0  0  0
   95.3239  102.7024   84.8603 C   0  0  0  0  0  0  0  0  0  0  0  0
   94.3990  102.8875   83.6591 C   0  0  0  0  0  0  0  0  0  0  0  0
   95.9462  101.5521   82.4234 O   0  0  0  0  0  0  0  0  0  0  0  0
   94.8091  102.0193   82.4863 C   0  0  0  0  0  0  0  0  0  0  0  0
   93.8286  101.7093   81.3997 C   0  0  0  0  0  0  0  0  0  0  0  0
   93.3917  100.4068   81.1198 C   0  0  0  0  0  0  0  0  0  0  0  0
   92.4756  100.1809   80.0872 C   0  0  0  0  0  0  0  0  0  0  0  0
   92.0012  101.2512   79.3378 C   0  0  0  0  0  0  0  0  0  0  0  0
   91.1247  101.0278   78.3506 F   0  0  0  0  0  0  0  0  0  0  0  0
   92.4257  102.5475   79.5976 C   0  0  0  0  0  0  0  0  0  0  0  0
   93.3406  102.7770   80.6275 C   0  0  0  0  0  0  0  0  0  0  0  0
 19 20  2  0  0  0
 20 18  1  0  0  0
 18 17  1  0  0  0
 17 16  1  0  0  0
 16  1  1  0  0  0
  1  2  1  0  0  0
  2  3  1  0  0  0
  3  4  1  0  0  0
  4  5  1  0  0  0
  4  9  1  0  0  0
  9 10  2  0  0  0
 10 11  1  0  0  0
 11 12  2  0  0  0
 12 13  1  0  0  0
 12 14  1  0  0  0
 14 15  2  0  0  0
  4  6  1  0  0  0
  6  7  1  0  0  0
 20 21  1  0  0  0
 21 22  2  0  0  0
 22 23  1  0  0  0
 23 24  2  0  0  0
 24 25  1  0  0  0
 24 26  1  0  0  0
 26 27  2  0  0  0
  7  1  1  0  0  0
 27 21  1  0  0  0
 15  9  1  0  0  0
  5  8  1  0  0  0
M  END
> <minimizedAffinity>
-8.75642

$$$$
decoy_furosemide


 25 26  0  0  0  0  0  0  0  0999 V2000
   95.6729  103.7031   84.9076 C   0  0  0  0  0  0  0  0  0  0  0  0
   96.8231  103.2005   84.2857 C   0  0  0  0  0  0  0  0  0  0  0  0
   96.7284  102.3795   83.1459 C   0  0  0  0  0  0  0  0  0  0  0  0
   95.4607  102.0398   82.6174 C   0  0  0  0  0  0  0  0  0  0  0  0
   94.3272  102.5962   83.2394 C   0  0  0  0  0  0  0  0  0  0  0  0
   94.4208  103.4064   84.3807 C   0  0  0  0  0  0  0  0  0  0  0  0
   92.9336  103.9547   85.0636 Cl  0  0  0  0  0  0  0  0  0  0  0  0
   97.4679  105.2573   86.2311 N   0  0  0  0  0  0  0  0  0  0  0  0
   95.8724  104.7411   86.3262 S   0  0  0  0  0  0  0  0  0  0  0  0
   95.0981  105.9437   86.1131 O   0  0  0  0  0  0  0  0  0  0  0  0
   95.7118  103.9293   87.5068 O   0  0  0  0  0  0  0  0  0  0  0  0
   98.0674  104.6956   85.6303 H   0  0  0  0  0  0  0  0  0  0  0  0
   97.4977  106.2570   86.0272 H   0  0  0  0  0  0  0  0  0  0  0  0
   98.0289  101.9106   82.5859 C   0  0  0  0  0  0  0  0  0  0  0  0
   98.4067  100.7528   82.5611 O   0  0  0  0  0  0  0  0  0  0  0  0
   98.7823  102.8839   82.0409 O   0  0  0  0  0  0  0  0  0  0  0  0
   99.5706  102.4022   81.7081 H   0  0  0  0  0  0  0  0  0  0  0  0
   95.3275  101.2916   81.4320 N   0  0  0  0  0  0  0  0  0  0  0  0
   96.1819  100.7361   81.2867 H   0  0  0  0  0  0  0  0  0  0  0  0
   94.1616  100.4187   81.2533 C   0  0  0  0  0  0  0  0  0  0  0  0
   93.1500  100.8974   80.2677 C   0  0  0  0  0  0  0  0  0  0  0  0
   91.9704  100.3690   79.7845 C   0  0  0  0  0  0  0  0  0  0  0  0
   91.4661  101.3073   78.8517 C   0  0  0  0  0  0  0  0  0  0  0  0
   92.3675  102.3451   78.8252 C   0  0  0  0  0  0  0  0  0  0  0  0
   93.3933  102.1064   79.6818 O   0  0  0  0  0  0  0  0  0  0  0  0
  8  9  1  0  0  0
  9 10  2  0  0  0
  9 11  2  0  0  0
  9  1  1  0  0  0
  1  2  2  0  0  0
  2  3  1  0  0  0
  3 14  1  0  0  0
 14 15  2  0  0  0
 14 16  1  0  0  0
  3  4  2  0  0  0
  4 18  1  0  0  0
 18 20  1  0  0  0
 20 21  1  0  0  0
 21 22  2  0  0  0
 22 23  1  0  0  0
 23 24  2  0  0  0
 24 25  1  0  0  0
  4  5  1  0  0  0
  5  6  2  0  0  0
  6  7  1  0  0  0
  6  1  1  0  0  0
 25 21  1  0  0  0
  8 12  1  0  0  0
  8 13  1  0  0  0
 16 17  1  0  0  0
 18 19  1  0  0  0
M  END
> <minimizedAffinity>
-7.60786

$$$$
decoy_fluoxetine


 23 24  0  0  0  0  0  0  0  0999 V2000
   92.2309  111.0974   86.4118 C   0  0  0  0  0  0  0  0  0  0  0  0
   93.0072  109.8925   86.9188 C   0  0  0  0  0  0  0  0  0  0  0  0
   93.1530  108.7386   86.1332 C   0  0  0  0  0  0  0  0  0  0  0  0
   93.8794  107.6441   86.6045 C   0  0  0  0  0  0  0  0  0  0  0  0
   94.4722  107.6901   87.8641 C   0  0  0  0  0  0  0  0  0  0  0  0
   94.3397  108.8298   88.6543 C   0  0  0  0  0  0  0  0  0  0  0  0
   93.6125  109.9253   88.1855 C   0  0  0  0  0  0  0  0  0  0  0  0
   92.3932  111.2768   84.8883 C   0  0  0  0  0  0  0  0  0  0  0  0
   91.5946  112.4604   84.3357 C   0  0  0  0  0  0  0  0  0  0  0  0
   89.2722  113.1786   84.3824 C   0  0  0  0  0  0  0  0  0  0  0  0
   90.2052  112.1226   84.0142 N   0  0  0  0  0  0  0  0  0  0  0  0
   90.1154  111.9219   83.0186 H   0  0  0  0  0  0  0  0  0  0  0  0
   90.8188  110.9270   86.6386 O   0  0  0  0  0  0  0  0  0  0  0  0
   90.2178  111.6317   87.6427 C   0  0  0  0  0  0  0  0  0  0  0  0
   90.8576  112.4317   88.5872 C   0  0  0  0  0  0  0  0  0  0  0  0
   90.1134  113.0898   89.5738 C   0  0  0  0  0  0  0  0  0  0  0  0
   88.7195  112.9472   89.6379 C   0  0  0  0  0  0  0  0  0  0  0  0
   88.0833  112.1392   88.6865 C   0  0  0  0  0  0  0  0  0  0  0  0
   88.8301  111.4835   87.7045 C   0  0  0  0  0  0  0  0  0  0  0  0
   87.9189  113.6752   90.6892 C   0  0  0  0  0  0  0  0  0  0  0  0
   88.1474  115.0174   90.6754 F   0  0  0  0  0  0  0  0  0  0  0  0
   88.1994  113.2619   91.9570 F   0  0  0  0  0  0  0  0  0  0  0  0
   86.5732  113.5235   90.5396 F   0  0  0  0  0  0  0  0  0  0  0  0
 10 11  1  0  0  0
 11  9  1  0  0  0
  9  8  1  0  0  0
  8  1  1  0  0  0
  1 13  1  0  0  0
 13 14  1  0  0  0
 14 15  2  0  0  0
 15 16  1  0  0  0
 16 17  2  0  0  0
 17 20  1  0  0  0
 20 21  1  0  0  0
 20 22  1  0  0  0
 20 23  1  0  0  0
 17 18  1  0  0  0
 18 19  2  0  0  0
  1  2  1  0  0  0
  2  3  2  0  0  0
  3  4  1  0  0  0
  4  5  2  0  0  0
  5  6  1  0  0  0
  6  7  2  0  0  0
 19 14  1  0  0  0
  7  2  1  0  0  0
 11 12  1  0  0  0
M  END
> <minimizedAffinity>
-5.89550

$$$$
decoy_fluconazole


 23 25  0  0  0  0  0  0  0  0999 V2000
   90.9878  110.9611   87.4904 O   0  0  0  0  0  0  0  0  0  0  0  0
   92.3946  111.2631   87.6536 C   0  0  0  0  0  0  0  0  0  0  0  0
   90.8620  110.6986   86.5493 H   0  0  0  0  0  0  0  0  0  0  0  0
   93.1786  109.9461   87.6059 C   0  0  0  0  0  0  0  0  0  0  0  0
   93.9860  109.5046   88.6710 C   0  0  0  0  0  0  0  0  0  0  0  0
   94.6783  108.2912   88.5924 C   0  0  0  0  0  0  0  0  0  0  0  0
   94.5603  107.4983   87.4588 C   0  0  0  0  0  0  0  0  0  0  0  0
   95.2225  106.3367   87.3931 F   0  0  0  0  0  0  0  0  0  0  0  0
   93.7511  107.8856   86.4057 C   0  0  0  0  0  0  0  0  0  0  0  0
   93.0655  109.0932   86.4905 C   0  0  0  0  0  0  0  0  0  0  0  0
   92.2444  109.4122   85.4802 F   0  0  0  0  0  0  0  0  0  0  0  0
   92.7552  112.3290   86.5767 C   0  0  0  0  0  0  0  0  0  0  0  0
   91.6866  112.6412   85.6435 N   0  0  0  0  0  0  0  0  0  0  0  0
   91.6244  112.3275   84.3215 C   0  0  0  0  0  0  0  0  0  0  0  0
   90.4981  112.7758   83.8185 N   0  0  0  0  0  0  0  0  0  0  0  0
   89.9021  113.3839   84.8856 C   0  0  0  0  0  0  0  0  0  0  0  0
   90.5939  113.3323   86.0286 N   0  0  0  0  0  0  0  0  0  0  0  0
   92.4989  111.8908   89.0670 C   0  0  0  0  0  0  0  0  0  0  0  0
   91.4220  112.7853   89.4156 N   0  0  0  0  0  0  0  0  0  0  0  0
   91.4290  114.1446   89.4047 C   0  0  0  0  0  0  0  0  0  0  0  0
   90.2582  114.5891   89.7982 N   0  0  0  0  0  0  0  0  0  0  0  0
   89.5635  113.4438   90.0584 C   0  0  0  0  0  0  0  0  0  0  0  0
   90.2313  112.3092   89.8263 N   0  0  0  0  0  0  0  0  0  0  0  0
  1  2  1  0  0  0
  2 12  1  0  0  0
 12 13  1  0  0  0
 13 14  1  0  0  0
 14 15  2  0  0  0
 15 16  1  0  0  0
 16 17  2  0  0  0
  2 18  1  0  0  0
 18 19  1  0  0  0
 19 20  1  0  0  0
 20 21  2  0  0  0
 21 22  1  0  0  0
 22 23  2  0  0  0
  2  4  1  0  0  0
  4  5  2  0  0  0
  5  6  1  0  0  0
  6  7  2  0  0  0
  7  8  1  0  0  0
  7  9  1  0  0  0
  9 10  2  0  0  0
 10 11  1  0  0  0
 17 13  1  0  0  0
 23 19  1  0  0  0
 10  4  1  0  0  0
  1  3  1  0  0  0
M  END
> <minimizedAffinity>
-5.38048

$$$$
decoy_diphenhydramine


 19 20  0  0  0  0  0  0  0  0999 V2000
   89.2821  113.5320   84.3263 C   0  0  0  0  0  0  0  0  0  0  0  0
   90.7836  113.2945   84.4033 C   0  0  0  0  0  0  0  0  0  0  0  0
   91.3336  112.0815   83.9503 C   0  0  0  0  0  0  0  0  0  0  0  0
   92.7089  111.8461   84.0327 C   0  0  0  0  0  0  0  0  0  0  0  0
   93.5517  112.8163   84.5709 C   0  0  0  0  0  0  0  0  0  0  0  0
   93.0217  114.0226   85.0282 C   0  0  0  0  0  0  0  0  0  0  0  0
   91.6473  114.2597   84.9463 C   0  0  0  0  0  0  0  0  0  0  0  0
   88.4925  112.5441   85.1754 C   0  0  0  0  0  0  0  0  0  0  0  0
   88.9244  112.2359   86.4776 C   0  0  0  0  0  0  0  0  0  0  0  0
   88.2066  111.3420   87.2749 C   0  0  0  0  0  0  0  0  0  0  0  0
   87.0446  110.7493   86.7854 C   0  0  0  0  0  0  0  0  0  0  0  0
   86.5982  111.0502   85.4993 C   0  0  0  0  0  0  0  0  0  0  0  0
   87.3156  111.9425   84.7005 C   0  0  0  0  0  0  0  0  0  0  0  0
   89.0124  114.8844   84.7331 O   0  0  0  0  0  0  0  0  0  0  0  0
   88.5988  115.7352   83.6603 C   0  0  0  0  0  0  0  0  0  0  0  0
   87.4759  115.0767   82.8339 C   0  0  0  0  0  0  0  0  0  0  0  0
   86.0824  116.8335   83.7989 C   0  0  0  0  0  0  0  0  0  0  0  0
   86.1220  115.6474   82.9468 N   0  0  0  0  0  0  0  0  0  0  0  0
   85.1298  114.6633   83.3730 C   0  0  0  0  0  0  0  0  0  0  0  0
 17 18  1  0  0  0
 18 19  1  0  0  0
 18 16  1  0  0  0
 16 15  1  0  0  0
 15 14  1  0  0  0
 14  1  1  0  0  0
  1  2  1  0  0  0
  2  3  2  0  0  0
  3  4  1  0  0  0
  4  5  2  0  0  0
  5  6  1  0  0  0
  6  7  2  0  0  0
  1  8  1  0  0  0
  8  9  2  0  0  0
  9 10  1  0  0  0
 10 11  2  0  0  0
 11 12  1  0  0  0
 12 13  2  0  0  0
  7  2  1  0  0  0
 13  8  1  0  0  0
M  END
> <minimizedAffinity>
-5.11611

$$$$
decoy_diazepam


 20 22  0  0  0  0  0  0  0  0999 V2000
   92.0700  113.0786   91.1387 C   0  0  0  0  0  0  0  0  0  0  0  0
   91.8910  113.2540   89.7035 N   0  0  0  0  0  0  0  0  0  0  0  0
   91.6457  114.5595   89.2588 C   0  0  0  0  0  0  0  0  0  0  0  0
   91.5020  115.5054   90.0395 O   0  0  0  0  0  0  0  0  0  0  0  0
   91.6482  114.7951   87.7547 C   0  0  0  0  0  0  0  0  0  0  0  0
   90.4610  114.1822   87.1686 N   0  0  0  0  0  0  0  0  0  0  0  0
   90.4042  112.8938   87.1255 C   0  0  0  0  0  0  0  0  0  0  0  0
   91.5050  111.9942   87.5795 C   0  0  0  0  0  0  0  0  0  0  0  0
   91.8509  110.9291   86.7265 C   0  0  0  0  0  0  0  0  0  0  0  0
   92.7856  109.9844   87.1325 C   0  0  0  0  0  0  0  0  0  0  0  0
   93.1916  108.6771   86.0931 Cl  0  0  0  0  0  0  0  0  0  0  0  0
   93.3834  110.0875   88.3811 C   0  0  0  0  0  0  0  0  0  0  0  0
   93.0612  111.1592   89.2204 C   0  0  0  0  0  0  0  0  0  0  0  0
   92.1392  112.1496   88.8288 C   0  0  0  0  0  0  0  0  0  0  0  0
   89.1517  112.2808   86.5769 C   0  0  0  0  0  0  0  0  0  0  0  0
   88.7560  112.5970   85.2716 C   0  0  0  0  0  0  0  0  0  0  0  0
   87.5934  112.0394   84.7373 C   0  0  0  0  0  0  0  0  0  0  0  0
   86.8176  111.1737   85.5073 C   0  0  0  0  0  0  0  0  0  0  0  0
   87.1967  110.8706   86.8150 C   0  0  0  0  0  0  0  0  0  0  0  0
   88.3590  111.4263   87.3541 C   0  0  0  0  0  0  0  0  0  0  0  0
  1  2  1  0  0  0
  2  3  1  0  0  0
  3  4  2  0  0  0
  3  5  1  0  0  0
  5  6  1  0  0  0
  6  7  2  0  0  0
  7 15  1  0  0  0
 15 16  2  0  0  0
 16 17  1  0  0  0
 17 18  2  0  0  0
 18 19  1  0  0  0
 19 20  2  0  0  0
  7  8  1  0  0  0
  8  9  2  0  0  0
  9 10  1  0  0  0
 10 11  1  0  0  0
 10 12  2  0  0  0
 12 13  1  0  0  0
 13 14  2  0  0  0
 14  2  1  0  0  0
 20 15  1  0  0  0
 14  8  1  0  0  0
M  END
> <minimizedAffinity>
-5.89423

$$$$
decoy_ciprofloxacin


 26 29  0  0  0  0  0  0  0  0999 V2000
   87.8979  112.4023   84.8864 C   0  0  0  0  0  0  0  0  0  0  0  0
   88.5909  113.3754   84.2750 C   0  0  0  0  0  0  0  0  0  0  0  0
   89.7489  113.9683   84.7449 N   0  0  0  0  0  0  0  0  0  0  0  0
   90.3801  113.4312   85.9027 C   0  0  0  0  0  0  0  0  0  0  0  0
   91.6399  113.8651   86.3544 C   0  0  0  0  0  0  0  0  0  0  0  0
   92.2624  113.3412   87.5090 C   0  0  0  0  0  0  0  0  0  0  0  0
   91.5470  112.3618   88.2220 C   0  0  0  0  0  0  0  0  0  0  0  0
   92.0513  111.8074   89.3350 F   0  0  0  0  0  0  0  0  0  0  0  0
   90.3025  111.9036   87.7997 C   0  0  0  0  0  0  0  0  0  0  0  0
   89.7277  112.4299   86.6417 C   0  0  0  0  0  0  0  0  0  0  0  0
   88.4037  111.9249   86.1947 C   0  0  0  0  0  0  0  0  0  0  0  0
   87.7706  111.1597   86.9134 O   0  0  0  0  0  0  0  0  0  0  0  0
   93.5198  113.8582   87.8818 N   0  0  0  0  0  0  0  0  0  0  0  0
   94.5688  113.9395   86.8386 C   0  0  0  0  0  0  0  0  0  0  0  0
   95.9312  114.2932   87.4790 C   0  0  0  0  0  0  0  0  0  0  0  0
   95.9001  115.5457   88.2594 N   0  0  0  0  0  0  0  0  0  0  0  0
   94.8261  115.4630   89.2660 C   0  0  0  0  0  0  0  0  0  0  0  0
   93.4408  115.1134   88.6712 C   0  0  0  0  0  0  0  0  0  0  0  0
   96.7946  115.6630   88.7336 H   0  0  0  0  0  0  0  0  0  0  0  0
   85.8738  112.5756   83.6209 O   0  0  0  0  0  0  0  0  0  0  0  0
   86.6976  111.8959   84.2118 C   0  0  0  0  0  0  0  0  0  0  0  0
   86.5992  110.5590   84.2293 O   0  0  0  0  0  0  0  0  0  0  0  0
   85.7592  110.3588   83.7694 H   0  0  0  0  0  0  0  0  0  0  0  0
   90.4052  114.9836   83.8995 C   0  0  0  0  0  0  0  0  0  0  0  0
   89.6197  115.9421   83.0359 C   0  0  0  0  0  0  0  0  0  0  0  0
   90.3451  116.4528   84.2399 C   0  0  0  0  0  0  0  0  0  0  0  0
 20 21  2  0  0  0
 21 22  1  0  0  0
 21  1  1  0  0  0
  1  2  2  0  0  0
  2  3  1  0  0  0
  3 24  1  0  0  0
 24 25  1  0  0  0
 25 26  1  0  0  0
  3  4  1  0  0  0
  4  5  2  0  0  0
  5  6  1  0  0  0
  6 13  1  0  0  0
 13 14  1  0  0  0
 14 15  1  0  0  0
 15 16  1  0  0  0
 16 17  1  0  0  0
 17 18  1  0  0  0
  6  7  2  0  0  0
  7  8  1  0  0  0
  7  9  1  0  0  0
  9 10  2  0  0  0
 10 11  1  0  0  0
 11 12  2  0  0  0
 11  1  1  0  0  0
 26 24  1  0  0  0
 10  4  1  0  0  0
 18 13  1  0  0  0
 22 23  1  0  0  0
 16 19  1  0  0  0
M  END
> <minimizedAffinity>
-6.04101

$$$$
decoy_chlorpromazine


 21 23  0  0  0  0  0  0  0  0999 V2000
  102.6923   96.5611   84.2954 N   0  0  0  0  0  0  0  0  0  0  0  0
  103.3603   96.6845   83.0414 C   0  0  0  0  0  0  0  0  0  0  0  0
  102.9758   97.6384   82.0712 C   0  0  0  0  0  0  0  0  0  0  0  0
  103.6164   97.7594   80.8316 C   0  0  0  0  0  0  0  0  0  0  0  0
  104.6711   96.9221   80.5136 C   0  0  0  0  0  0  0  0  0  0  0  0
  105.0770   95.9678   81.4384 C   0  0  0  0  0  0  0  0  0  0  0  0
  104.4334   95.8419   82.6865 C   0  0  0  0  0  0  0  0  0  0  0  0
  105.0982   94.5907   83.7581 S   0  0  0  0  0  0  0  0  0  0  0  0
  103.9114   94.5510   85.0782 C   0  0  0  0  0  0  0  0  0  0  0  0
  104.0809   93.5018   86.0051 C   0  0  0  0  0  0  0  0  0  0  0  0
  103.2313   93.3643   87.0964 C   0  0  0  0  0  0  0  0  0  0  0  0
  102.2067   94.2792   87.2623 C   0  0  0  0  0  0  0  0  0  0  0  0
  101.1337   94.1252   88.6001 Cl  0  0  0  0  0  0  0  0  0  0  0  0
  102.0321   95.3249   86.3499 C   0  0  0  0  0  0  0  0  0  0  0  0
  102.8797   95.5013   85.2317 C   0  0  0  0  0  0  0  0  0  0  0  0
  101.7985   97.6768   84.6993 C   0  0  0  0  0  0  0  0  0  0  0  0
  102.5555   98.7322   85.5207 C   0  0  0  0  0  0  0  0  0  0  0  0
  102.5785  100.0993   84.8263 C   0  0  0  0  0  0  0  0  0  0  0  0
  104.3590  101.6187   85.3899 C   0  0  0  0  0  0  0  0  0  0  0  0
  103.9294  100.5608   84.4686 N   0  0  0  0  0  0  0  0  0  0  0  0
  103.9848  101.0644   83.0929 C   0  0  0  0  0  0  0  0  0  0  0  0
 19 20  1  0  0  0
 20 21  1  0  0  0
 20 18  1  0  0  0
 18 17  1  0  0  0
 17 16  1  0  0  0
 16  1  1  0  0  0
  1  2  1  0  0  0
  2  3  2  0  0  0
  3  4  1  0  0  0
  4  5  2  0  0  0
  5  6  1  0  0  0
  6  7  2  0  0  0
  7  8  1  0  0  0
  8  9  1  0  0  0
  9 10  2  0  0  0
 10 11  1  0  0  0
 11 12  2  0  0  0
 12 13  1  0  0  0
 12 14  1  0  0  0
 14 15  2  0  0  0
 15  1  1  0  0  0
  7  2  1  0  0  0
 15  9  1  0  0  0
M  END
> <minimizedAffinity>
-5.13055

$$$$
decoy_celecoxib


 28 30  0  0  0  0  0  0  0  0999 V2000
   92.5885  113.3027   87.9076 C   0  0  0  0  0  0  0  0  0  0  0  0
   91.7343  114.1226   88.6221 C   0  0  0  0  0  0  0  0  0  0  0  0
   90.7196  113.2885   89.1350 C   0  0  0  0  0  0  0  0  0  0  0  0
   90.9274  112.0138   88.7693 N   0  0  0  0  0  0  0  0  0  0  0  0
   92.1146  112.0028   88.0952 N   0  0  0  0  0  0  0  0  0  0  0  0
   97.0098  114.9191   84.5654 C   0  0  0  0  0  0  0  0  0  0  0  0
   95.8559  114.5272   85.4407 C   0  0  0  0  0  0  0  0  0  0  0  0
   96.0561  114.2613   86.8001 C   0  0  0  0  0  0  0  0  0  0  0  0
   94.9880  113.8654   87.6091 C   0  0  0  0  0  0  0  0  0  0  0  0
   93.7035  113.7307   87.0691 C   0  0  0  0  0  0  0  0  0  0  0  0
   93.5086  113.9650   85.7035 C   0  0  0  0  0  0  0  0  0  0  0  0
   94.5775  114.3611   84.8955 C   0  0  0  0  0  0  0  0  0  0  0  0
   92.6719  110.7378   87.7177 C   0  0  0  0  0  0  0  0  0  0  0  0
   93.5587  110.0965   88.6049 C   0  0  0  0  0  0  0  0  0  0  0  0
   94.1303  108.8625   88.2814 C   0  0  0  0  0  0  0  0  0  0  0  0
   93.8195  108.2602   87.0627 C   0  0  0  0  0  0  0  0  0  0  0  0
   92.9684  108.8954   86.1571 C   0  0  0  0  0  0  0  0  0  0  0  0
   92.3981  110.1319   86.4839 C   0  0  0  0  0  0  0  0  0  0  0  0
   94.5649  106.7152   86.6346 S   0  0  0  0  0  0  0  0  0  0  0  0
   94.7578  105.9952   88.1390 N   0  0  0  0  0  0  0  0  0  0  0  0
   93.6035  105.9012   85.9280 O   0  0  0  0  0  0  0  0  0  0  0  0
   95.8979  106.9521   86.1324 O   0  0  0  0  0  0  0  0  0  0  0  0
   94.2027  105.1406   88.1859 H   0  0  0  0  0  0  0  0  0  0  0  0
   95.7505  105.8524   88.3277 H   0  0  0  0  0  0  0  0  0  0  0  0
   89.5291  113.7184   89.9494 C   0  0  0  0  0  0  0  0  0  0  0  0
   89.2157  115.0283   89.7669 F   0  0  0  0  0  0  0  0  0  0  0  0
   89.7207  113.5351   91.2828 F   0  0  0  0  0  0  0  0  0  0  0  0
   88.4127  113.0088   89.6221 F   0  0  0  0  0  0  0  0  0  0  0  0
  6  7  1  0  0  0
  7  8  2  0  0  0
  8  9  1  0  0  0
  9 10  2  0  0  0
 10  1  1  0  0  0
  1  2  2  0  0  0
  2  3  1  0  0  0
  3 25  1  0  0  0
 25 26  1  0  0  0
 25 27  1  0  0  0
 25 28  1  0  0  0
  3  4  2  0  0  0
  4  5  1  0  0  0
  5 13  1  0  0  0
 13 14  2  0  0  0
 14 15  1  0  0  0
 15 16  2  0  0  0
 16 19  1  0  0  0
 19 20  1  0  0  0
 19 21  2  0  0  0
 19 22  2  0  0  0
 16 17  1  0  0  0
 17 18  2  0  0  0
 10 11  1  0  0  0
 11 12  2  0  0  0
 12  7  1  0  0  0
  5  1  1  0  0  0
 18 13  1  0  0  0
 20 23  1  0  0  0
 20 24  1  0  0  0
M  END
> <minimizedAffinity>
-6.43544

$$$$
decoy_captopril


 16 16  0  0  0  0  0  0  0  0999 V2000
   95.6339  106.1899   87.0442 C   0  0  0  0  0  0  0  0  0  0  0  0
   96.7272  106.4442   87.5537 O   0  0  0  0  0  0  0  0  0  0  0  0
   95.5146  105.2003   86.0913 N   0  0  0  0  0  0  0  0  0  0  0  0
   94.2986  104.5807   85.5930 C   0  0  0  0  0  0  0  0  0  0  0  0
   94.7177  103.1497   85.3000 C   0  0  0  0  0  0  0  0  0  0  0  0
   96.1512  103.3060   84.8132 C   0  0  0  0  0  0  0  0  0  0  0  0
   96.7067  104.4590   85.6572 C   0  0  0  0  0  0  0  0  0  0  0  0
   97.6892  105.2681   84.8065 C   0  0  0  0  0  0  0  0  0  0  0  0
   98.2594  104.8571   83.8054 O   0  0  0  0  0  0  0  0  0  0  0  0
   97.8409  106.5556   85.1822 O   0  0  0  0  0  0  0  0  0  0  0  0
   98.5145  106.9040   84.5628 H   0  0  0  0  0  0  0  0  0  0  0  0
   93.9105  107.7907   86.2030 C   0  0  0  0  0  0  0  0  0  0  0  0
   94.3803  106.9841   87.4168 C   0  0  0  0  0  0  0  0  0  0  0  0
   94.7009  107.8918   88.6161 C   0  0  0  0  0  0  0  0  0  0  0  0
   93.9161  109.5342   88.4916 S   0  0  0  0  0  0  0  0  0  0  0  0
   92.6488  109.1100   88.6017 H   0  0  0  0  0  0  0  0  0  0  0  0
 12 13  1  0  0  0
 13 14  1  0  0  0
 14 15  1  0  0  0
 13  1  1  0  0  0
  1  2  2  0  0  0
  1  3  1  0  0  0
  3  4  1  0  0  0
  4  5  1  0  0  0
  5  6  1  0  0  0
  6  7  1  0  0  0
  7  8  1  0  0  0
  8  9  2  0  0  0
  8 10  1  0  0  0
  7  3  1  0  0  0
 15 16  1  0  0  0
 10 11  1  0  0  0
M  END
> <minimizedAffinity>
-5.52738

$$$$
decoy_caffeine


 14 15  0  0  0  0  0  0  0  0999 V2000
   90.3403  117.0564   82.1644 C   0  0  0  0  0  0  0  0  0  0  0  0
   89.0913  116.3545   82.3177 N   0  0  0  0  0  0  0  0  0  0  0  0
   87.9002  116.6838   81.7265 C   0  0  0  0  0  0  0  0  0  0  0  0
   86.9410  115.8452   82.0653 N   0  0  0  0  0  0  0  0  0  0  0  0
   87.5478  114.9555   82.8994 C   0  0  0  0  0  0  0  0  0  0  0  0
   88.8678  115.2405   83.0748 C   0  0  0  0  0  0  0  0  0  0  0  0
   89.7292  114.4661   83.8981 C   0  0  0  0  0  0  0  0  0  0  0  0
   90.9180  114.7317   84.0494 O   0  0  0  0  0  0  0  0  0  0  0  0
   89.0753  113.3884   84.5025 N   0  0  0  0  0  0  0  0  0  0  0  0
   89.8472  112.5198   85.3693 C   0  0  0  0  0  0  0  0  0  0  0  0
   87.7119  113.0608   84.3461 C   0  0  0  0  0  0  0  0  0  0  0  0
   87.2241  112.0848   84.9241 O   0  0  0  0  0  0  0  0  0  0  0  0
   86.9496  113.8834   83.5161 N   0  0  0  0  0  0  0  0  0  0  0  0
   85.5394  113.6152   83.3020 C   0  0  0  0  0  0  0  0  0  0  0  0
  1  2  1  0  0  0
  2  3  1  0  0  0
  3  4  2  0  0  0
  4  5  1  0  0  0
  5  6  2  0  0  0
  6  7  1  0  0  0
  7  8  2  0  0  0
  7  9  1  0  0  0
  9 10  1  0  0  0
  9 11  1  0  0  0
 11 12  2  0  0  0
 11 13  1  0  0  0
 13 14  1  0  0  0
  6  2  1  0  0  0
 13  5  1  0  0  0
M  END
> <minimizedAffinity>
-4.72060

$$$$
decoy_atenolol


 23 23  0  0  0  0  0  0  0  0999 V2000
   94.6134  102.6518   83.6274 C   0  0  0  0  0  0  0  0  0  0  0  0
   95.8799  102.7172   84.2040 C   0  0  0  0  0  0  0  0  0  0  0  0
   96.1254  103.5949   85.2656 C   0  0  0  0  0  0  0  0  0  0  0  0
   95.1085  104.4220   85.7605 C   0  0  0  0  0  0  0  0  0  0  0  0
   93.8378  104.3540   85.1759 C   0  0  0  0  0  0  0  0  0  0  0  0
   93.5980  103.4763   84.1169 C   0  0  0  0  0  0  0  0  0  0  0  0
   94.2405  101.8403   82.5916 O   0  0  0  0  0  0  0  0  0  0  0  0
   95.2935  101.2704   81.8019 C   0  0  0  0  0  0  0  0  0  0  0  0
   94.6403  100.5415   80.6206 C   0  0  0  0  0  0  0  0  0  0  0  0
   95.4941   99.4789   80.1735 O   0  0  0  0  0  0  0  0  0  0  0  0
   96.3948   99.8492   80.1461 H   0  0  0  0  0  0  0  0  0  0  0  0
   93.2334   99.9919   80.9431 C   0  0  0  0  0  0  0  0  0  0  0  0
   92.1331  100.7735   80.3589 N   0  0  0  0  0  0  0  0  0  0  0  0
   91.6015  101.2455   81.0877 H   0  0  0  0  0  0  0  0  0  0  0  0
   92.6953  103.1657   79.9269 C   0  0  0  0  0  0  0  0  0  0  0  0
   92.5783  101.7507   79.3566 C   0  0  0  0  0  0  0  0  0  0  0  0
   91.5680  101.7374   78.2073 C   0  0  0  0  0  0  0  0  0  0  0  0
   95.3815  105.3684   86.9040 C   0  0  0  0  0  0  0  0  0  0  0  0
   96.8055  105.8867   86.9153 C   0  0  0  0  0  0  0  0  0  0  0  0
   97.6690  105.2207   87.7391 N   0  0  0  0  0  0  0  0  0  0  0  0
   97.1905  106.8251   86.2254 O   0  0  0  0  0  0  0  0  0  0  0  0
   97.3077  104.7371   88.5514 H   0  0  0  0  0  0  0  0  0  0  0  0
   98.5852  105.6404   87.8312 H   0  0  0  0  0  0  0  0  0  0  0  0
 15 16  1  0  0  0
 16 17  1  0  0  0
 16 13  1  0  0  0
 13 12  1  0  0  0
 12  9  1  0  0  0
  9 10  1  0  0  0
  9  8  1  0  0  0
  8  7  1  0  0  0
  7  1  1  0  0  0
  1  2  2  0  0  0
  2  3  1  0  0  0
  3  4  2  0  0  0
  4 18  1  0  0  0
 18 19  1  0  0  0
 19 20  1  0  0  0
 19 21  2  0  0  0
  4  5  1  0  0  0
  5  6  2  0  0  0
  6  1  1  0  0  0
 13 14  1  0  0  0
 10 11  1  0  0  0
 20 22  1  0  0  0
 20 23  1  0  0  0
M  END
> <minimizedAffinity>
-7.19912

$$$$
decoy_aspirin


 14 14  0  0  0  0  0  0  0  0999 V2000
   94.8093  102.4386   83.5577 C   0  0  0  0  0  0  0  0  0  0  0  0
   93.8149  103.0587   84.3246 C   0  0  0  0  0  0  0  0  0  0  0  0
   94.1641  104.0303   85.2607 C   0  0  0  0  0  0  0  0  0  0  0  0
   95.5005  104.3897   85.4234 C   0  0  0  0  0  0  0  0  0  0  0  0
   96.4890  103.7828   84.6430 C   0  0  0  0  0  0  0  0  0  0  0  0
   96.1555  102.8048   83.6910 C   0  0  0  0  0  0  0  0  0  0  0  0
   97.2758  102.2439   82.8950 C   0  0  0  0  0  0  0  0  0  0  0  0
   98.2184  102.8854   82.4634 O   0  0  0  0  0  0  0  0  0  0  0  0
   97.1775  100.9305   82.6282 O   0  0  0  0  0  0  0  0  0  0  0  0
   97.9798  100.7510   82.0938 H   0  0  0  0  0  0  0  0  0  0  0  0
   94.3699  101.4913   82.6299 O   0  0  0  0  0  0  0  0  0  0  0  0
   93.9328  101.1017   80.3539 C   0  0  0  0  0  0  0  0  0  0  0  0
   93.8236  102.0723   81.4918 C   0  0  0  0  0  0  0  0  0  0  0  0
   93.3383  103.1922   81.3994 O   0  0  0  0  0  0  0  0  0  0  0  0
 12 13  1  0  0  0
 13 14  2  0  0  0
 13 11  1  0  0  0
 11  1  1  0  0  0
  1  2  2  0  0  0
  2  3  1  0  0  0
  3  4  2  0  0  0
  4  5  1  0  0  0
  5  6  2  0  0  0
  6  7  1  0  0  0
  7  8  2  0  0  0
  7  9  1  0  0  0
  6  1  1  0  0  0
  9 10  1  0  0  0
M  END
> <minimizedAffinity>
-6.61783

$$$$
decoy_amlodipine


 31 32  0  0  0  0  0  0  0  0999 V2000
   90.5521  112.7916   88.1839 C   0  0  0  0  0  0  0  0  0  0  0  0
   89.7238  112.0858   87.3794 C   0  0  0  0  0  0  0  0  0  0  0  0
   90.0777  111.8663   86.0532 N   0  0  0  0  0  0  0  0  0  0  0  0
   91.1662  112.4450   85.4253 C   0  0  0  0  0  0  0  0  0  0  0  0
   91.2278  112.2809   83.9292 C   0  0  0  0  0  0  0  0  0  0  0  0
   92.0606  113.1393   86.1636 C   0  0  0  0  0  0  0  0  0  0  0  0
   91.8910  113.3283   87.6700 C   0  0  0  0  0  0  0  0  0  0  0  0
   89.3193  111.4921   85.4779 H   0  0  0  0  0  0  0  0  0  0  0  0
   93.0624  112.6910   88.4315 C   0  0  0  0  0  0  0  0  0  0  0  0
   93.1871  111.2839   88.4467 C   0  0  0  0  0  0  0  0  0  0  0  0
   94.2317  110.6556   89.1268 C   0  0  0  0  0  0  0  0  0  0  0  0
   95.1770  111.4173   89.8039 C   0  0  0  0  0  0  0  0  0  0  0  0
   95.0779  112.8075   89.7978 C   0  0  0  0  0  0  0  0  0  0  0  0
   94.0320  113.4438   89.1177 C   0  0  0  0  0  0  0  0  0  0  0  0
   94.0091  115.1704   89.1720 Cl  0  0  0  0  0  0  0  0  0  0  0  0
   90.1907  113.0410   89.5985 C   0  0  0  0  0  0  0  0  0  0  0  0
   90.5049  112.3120   90.5271 O   0  0  0  0  0  0  0  0  0  0  0  0
   89.4457  114.1674   89.6896 O   0  0  0  0  0  0  0  0  0  0  0  0
   87.3400  113.7692   90.8149 C   0  0  0  0  0  0  0  0  0  0  0  0
   88.7347  114.3557   90.9212 C   0  0  0  0  0  0  0  0  0  0  0  0
   93.2353  113.8122   85.5769 C   0  0  0  0  0  0  0  0  0  0  0  0
   94.1746  113.2149   85.0762 O   0  0  0  0  0  0  0  0  0  0  0  0
   93.0715  115.1582   85.6266 O   0  0  0  0  0  0  0  0  0  0  0  0
   94.2673  115.8912   85.3623 C   0  0  0  0  0  0  0  0  0  0  0  0
   88.3770  111.5292   87.8141 C   0  0  0  0  0  0  0  0  0  0  0  0
   87.5259  111.4331   86.6575 O   0  0  0  0  0  0  0  0  0  0  0  0
   86.6301  110.3171   86.7229 C   0  0  0  0  0  0  0  0  0  0  0  0
   86.0205  109.9713   85.3555 C   0  0  0  0  0  0  0  0  0  0  0  0
   86.6976  110.6690   84.2579 N   0  0  0  0  0  0  0  0  0  0  0  0
   87.6990  110.4764   84.3387 H   0  0  0  0  0  0  0  0  0  0  0  0
   86.6180  111.6754   84.4033 H   0  0  0  0  0  0  0  0  0  0  0  0
 19 20  1  0  0  0
 20 18  1  0  0  0
 18 16  1  0  0  0
 16 17  2  0  0  0
 16  1  1  0  0  0
  1  2  2  0  0  0
  2 25  1  0  0  0
 25 26  1  0  0  0
 26 27  1  0  0  0
 27 28  1  0  0  0
 28 29  1  0  0  0
  2  3  1  0  0  0
  3  4  1  0  0  0
  4  5  1  0  0  0
  4  6  2  0  0  0
  6 21  1  0  0  0
 21 22  2  0  0  0
 21 23  1  0  0  0
 23 24  1  0  0  0
  6  7  1  0  0  0
  7  9  1  0  0  0
  9 10  2  0  0  0
 10 11  1  0  0  0
 11 12  2  0  0  0
 12 13  1  0  0  0
 13 14  2  0  0  0
 14 15  1  0  0  0
  7  1  1  0  0  0
 14  9  1  0  0  0
 29 30  1  0  0  0
 29 31  1  0  0  0
  3  8  1  0  0  0
M  END
> <minimizedAffinity>
-5.55869

$$$$
decoy_albendazole


 20 21  0  0  0  0  0  0  0  0999 V2000
   95.9377  104.0843   86.0579 C   0  0  0  0  0  0  0  0  0  0  0  0
   94.6635  104.6637   86.1371 C   0  0  0  0  0  0  0  0  0  0  0  0
   93.6734  104.3998   85.1817 C   0  0  0  0  0  0  0  0  0  0  0  0
   94.0262  103.5381   84.1439 C   0  0  0  0  0  0  0  0  0  0  0  0
   93.3376  103.0653   83.0585 N   0  0  0  0  0  0  0  0  0  0  0  0
   94.1723  102.2431   82.3445 C   0  0  0  0  0  0  0  0  0  0  0  0
   95.3550  102.1594   82.9075 N   0  0  0  0  0  0  0  0  0  0  0  0
   95.2839  102.9573   84.0257 C   0  0  0  0  0  0  0  0  0  0  0  0
   96.2633  103.2351   84.9904 C   0  0  0  0  0  0  0  0  0  0  0  0
   92.3811  103.2716   82.8004 H   0  0  0  0  0  0  0  0  0  0  0  0
   93.8140  101.5970   81.1948 N   0  0  0  0  0  0  0  0  0  0  0  0
   93.1258  102.1960   80.1833 C   0  0  0  0  0  0  0  0  0  0  0  0
   92.7418  103.3595   80.1634 O   0  0  0  0  0  0  0  0  0  0  0  0
   94.0803  100.6286   81.1015 H   0  0  0  0  0  0  0  0  0  0  0  0
   92.9252  101.2977   79.1850 O   0  0  0  0  0  0  0  0  0  0  0  0
   91.7274  101.5114   78.4367 C   0  0  0  0  0  0  0  0  0  0  0  0
   97.1406  104.4862   87.3184 S   0  0  0  0  0  0  0  0  0  0  0  0
   97.2204  106.3046   87.1502 C   0  0  0  0  0  0  0  0  0  0  0  0
   98.1775  106.4611   84.8315 C   0  0  0  0  0  0  0  0  0  0  0  0
   96.9704  106.7518   85.7115 C   0  0  0  0  0  0  0  0  0  0  0  0
 19 20  1  0  0  0
 20 18  1  0  0  0
 18 17  1  0  0  0
 17  1  1  0  0  0
  1  2  2  0  0  0
  2  3  1  0  0  0
  3  4  2  0  0  0
  4  5  1  0  0  0
  5  6  1  0  0  0
  6 11  1  0  0  0
 11 12  1  0  0  0
 12 13  2  0  0  0
 12 15  1  0  0  0
 15 16  1  0  0  0
  6  7  2  0  0  0
  7  8  1  0  0  0
  8  9  2  0  0  0
  9  1  1  0  0  0
  8  4  1  0  0  0
  5 10  1  0  0  0
 11 14  1  0  0  0
M  END
> <minimizedAffinity>
-6.96674

$$$$
decoy_acetaminophen


 13 13  0  0  0  0  0  0  0  0999 V2000
   94.4749  102.6496   83.4020 C   0  0  0  0  0  0  0  0  0  0  0  0
   95.8432  102.6668   83.7057 C   0  0  0  0  0  0  0  0  0  0  0  0
   96.3267  103.4300   84.7714 C   0  0  0  0  0  0  0  0  0  0  0  0
   95.4431  104.1784   85.5361 C   0  0  0  0  0  0  0  0  0  0  0  0
   95.9534  104.9093   86.5666 O   0  0  0  0  0  0  0  0  0  0  0  0
   94.0832  104.1756   85.2514 C   0  0  0  0  0  0  0  0  0  0  0  0
   93.6011  103.4102   84.1830 C   0  0  0  0  0  0  0  0  0  0  0  0
   95.2224  105.3743   87.0061 H   0  0  0  0  0  0  0  0  0  0  0  0
   93.1650  101.1269   80.2082 C   0  0  0  0  0  0  0  0  0  0  0  0
   93.4515  102.2738   81.1458 C   0  0  0  0  0  0  0  0  0  0  0  0
   93.1229  103.4178   80.8535 O   0  0  0  0  0  0  0  0  0  0  0  0
   94.0687  101.8545   82.3104 N   0  0  0  0  0  0  0  0  0  0  0  0
   94.2454  100.8619   82.3993 H   0  0  0  0  0  0  0  0  0  0  0  0
  9 10  1  0  0  0
 10 11  2  0  0  0
 10 12  1  0  0  0
 12  1  1  0  0  0
  1  2  2  0  0  0
  2  3  1  0  0  0
  3  4  2  0  0  0
  4  5  1  0  0  0
  4  6  1  0  0  0
  6  7  2  0  0  0
  7  1  1  0  0  0
 12 13  1  0  0  0
  5  8  1  0  0  0
M  END
> <minimizedAffinity>
-5.91942

$$$$
