decoy_warfarin
     RDKit          3D

 39 41  0  0  0  0  0  0  0  0999 V2000
   -3.9019   -2.1234    1.0191 C   0  0  0  0  0  0  0  0  0  0  0  0
   -2.6966   -2.4320    0.1704 C   0  0  0  0  0  0  0  0  0  0  0  0
   -2.8091   -3.0077   -0.9128 O   0  0  0  0  0  0  0  0  0  0  0  0
   -1.3438   -1.9777    0.6805 C   0  0  0  0  0  0  0  0  0  0  0  0
   -0.8694   -0.7184   -0.0710 C   0  0  0  0  0  0  0  0  0  0  0  0
   -1.6375    0.5475    0.3134 C   0  0  0  0  0  0  0  0  0  0  0  0
   -1.7853    0.9658    1.6448 C   0  0  0  0  0  0  0  0  0  0  0  0
   -2.4894    2.1323    1.9528 C   0  0  0  0  0  0  0  0  0  0  0  0
   -3.0525    2.8997    0.9366 C   0  0  0  0  0  0  0  0  0  0  0  0
   -2.9093    2.5043   -0.3903 C   0  0  0  0  0  0  0  0  0  0  0  0
   -2.2047    1.3397   -0.7000 C   0  0  0  0  0  0  0  0  0  0  0  0
    0.6416   -0.4896   -0.0387 C   0  0  0  0  0  0  0  0  0  0  0  0
    1.3481   -0.2136   -1.1505 C   0  0  0  0  0  0  0  0  0  0  0  0
    0.7163   -0.0768   -2.3723 O   0  0  0  0  0  0  0  0  0  0  0  0
    2.7972   -0.0028   -1.1106 C   0  0  0  0  0  0  0  0  0  0  0  0
    3.6085    0.1513   -2.2432 C   0  0  0  0  0  0  0  0  0  0  0  0
    4.9853    0.3709   -2.1106 C   0  0  0  0  0  0  0  0  0  0  0  0
    5.5702    0.4284   -0.8464 C   0  0  0  0  0  0  0  0  0  0  0  0
    4.7822    0.2498    0.2862 C   0  0  0  0  0  0  0  0  0  0  0  0
    3.4132    0.0282    0.1356 C   0  0  0  0  0  0  0  0  0  0  0  0
    2.6780   -0.2017    1.3081 O   0  0  0  0  0  0  0  0  0  0  0  0
    1.3375   -0.5602    1.2721 C   0  0  0  0  0  0  0  0  0  0  0  0
    0.7668   -0.9018    2.3024 O   0  0  0  0  0  0  0  0  0  0  0  0
   -3.7392   -2.4862    2.0370 H   0  0  0  0  0  0  0  0  0  0  0  0
   -4.7780   -2.6329    0.6078 H   0  0  0  0  0  0  0  0  0  0  0  0
   -4.0897   -1.0484    1.0264 H   0  0  0  0  0  0  0  0  0  0  0  0
   -1.4163   -1.8396    1.7634 H   0  0  0  0  0  0  0  0  0  0  0  0
   -0.6503   -2.8123    0.5160 H   0  0  0  0  0  0  0  0  0  0  0  0
   -1.1365   -0.9200   -1.1188 H   0  0  0  0  0  0  0  0  0  0  0  0
   -1.3543    0.3948    2.4643 H   0  0  0  0  0  0  0  0  0  0  0  0
   -2.5947    2.4424    2.9896 H   0  0  0  0  0  0  0  0  0  0  0  0
   -3.5996    3.8069    1.1789 H   0  0  0  0  0  0  0  0  0  0  0  0
   -3.3452    3.1024   -1.1862 H   0  0  0  0  0  0  0  0  0  0  0  0
   -2.1025    1.0505   -1.7449 H   0  0  0  0  0  0  0  0  0  0  0  0
    1.1890    0.5942   -2.8931 H   0  0  0  0  0  0  0  0  0  0  0  0
    3.1994    0.0821   -3.2476 H   0  0  0  0  0  0  0  0  0  0  0  0
    5.6034    0.4887   -2.9981 H   0  0  0  0  0  0  0  0  0  0  0  0
    6.6397    0.5960   -0.7461 H   0  0  0  0  0  0  0  0  0  0  0  0
    5.2293    0.2695    1.2760 H   0  0  0  0  0  0  0  0  0  0  0  0
  1  2  1  0
  2  3  2  0
  2  4  1  0
  4  5  1  0
  5  6  1  0
  6  7  2  0
  7  8  1  0
  8  9  2  0
  9 10  1  0
 10 11  2  0
  5 12  1  0
 12 13  2  0
 13 14  1  0
 13 15  1  0
 15 16  2  0
 16 17  1  0
 17 18  2  0
 18 19  1  0
 19 20  2  0
 20 21  1  0
 21 22  1  0
 22 23  2  0
 11  6  1  0
 22 12  1  0
 20 15  1  0
  1 24  1  0
  1 25  1  0
  1 26  1  0
  4 27  1  0
  4 28  1  0
  5 29  1  0
  7 30  1  0
  8 31  1  0
  9 32  1  0
 10 33  1  0
 11 34  1  0
 14 35  1  0
 16 36  1  0
 17 37  1  0
 18 38  1  0
 19 39  1  0
M  END
$$$$
decoy_verapamil
     RDKit          3D

 71 72  0  0  0  0  0  0  0  0999 V2000
    8.7434    1.1262   -2.8588 C   0  0  0  0  0  0  0  0  0  0  0  0
    8.5469    0.3349   -1.6943 O   0  0  0  0  0  0  0  0  0  0  0  0
    7.3123    0.3832   -1.0946 C   0  0  0  0  0  0  0  0  0  0  0  0
    6.2891    1.2610   -1.4664 C   0  0  0  0  0  0  0  0  0  0  0  0
    5.0633    1.2383   -0.7976 C   0  0  0  0  0  0  0  0  0  0  0  0
    4.8431    0.3466    0.2574 C   0  0  0  0  0  0  0  0  0  0  0  0
    3.5058    0.3161    0.9639 C   0  0  0  0  0  0  0  0  0  0  0  0
    2.5622   -0.7345    0.3498 C   0  0  0  0  0  0  0  0  0  0  0  0
    1.1936   -0.8028    0.8987 N   0  0  0  0  0  0  0  0  0  0  0  0
    1.1878   -1.1391    2.3203 C   0  0  0  0  0  0  0  0  0  0  0  0
    0.4123    0.4043    0.5978 C   0  0  0  0  0  0  0  0  0  0  0  0
   -1.1062    0.2190    0.7716 C   0  0  0  0  0  0  0  0  0  0  0  0
   -1.6636   -0.9730   -0.0293 C   0  0  0  0  0  0  0  0  0  0  0  0
   -3.0188   -0.7544   -0.7956 C   0  0  0  0  0  0  0  0  0  0  0  0
   -3.4922   -2.1230   -1.2027 C   0  0  0  0  0  0  0  0  0  0  0  0
   -3.8523   -3.1787   -1.5257 N   0  0  0  0  0  0  0  0  0  0  0  0
   -2.7901    0.0603   -2.1505 C   0  0  0  0  0  0  0  0  0  0  0  0
   -2.4155    1.5385   -1.9735 C   0  0  0  0  0  0  0  0  0  0  0  0
   -1.7448   -0.5642   -3.1013 C   0  0  0  0  0  0  0  0  0  0  0  0
   -4.1487   -0.1889    0.1123 C   0  0  0  0  0  0  0  0  0  0  0  0
   -4.2255   -0.5310    1.4771 C   0  0  0  0  0  0  0  0  0  0  0  0
   -5.2594   -0.0613    2.3012 C   0  0  0  0  0  0  0  0  0  0  0  0
   -6.2708    0.7443    1.7833 C   0  0  0  0  0  0  0  0  0  0  0  0
   -7.3215    1.2495    2.5060 O   0  0  0  0  0  0  0  0  0  0  0  0
   -7.4739    0.7868    3.8413 C   0  0  0  0  0  0  0  0  0  0  0  0
   -6.2455    1.0563    0.4182 C   0  0  0  0  0  0  0  0  0  0  0  0
   -7.2514    1.8573   -0.0693 O   0  0  0  0  0  0  0  0  0  0  0  0
   -7.7915    1.4231   -1.3150 C   0  0  0  0  0  0  0  0  0  0  0  0
   -5.1967    0.6012   -0.3982 C   0  0  0  0  0  0  0  0  0  0  0  0
    5.8694   -0.5345    0.6322 C   0  0  0  0  0  0  0  0  0  0  0  0
    7.1017   -0.5221   -0.0350 C   0  0  0  0  0  0  0  0  0  0  0  0
    8.1570   -1.3486    0.2686 O   0  0  0  0  0  0  0  0  0  0  0  0
    7.9444   -2.3564    1.2443 C   0  0  0  0  0  0  0  0  0  0  0  0
    8.0216    0.8648   -3.6415 H   0  0  0  0  0  0  0  0  0  0  0  0
    8.7052    2.1941   -2.6221 H   0  0  0  0  0  0  0  0  0  0  0  0
    9.7460    0.9127   -3.2428 H   0  0  0  0  0  0  0  0  0  0  0  0
    6.4159    1.9816   -2.2679 H   0  0  0  0  0  0  0  0  0  0  0  0
    4.2807    1.9294   -1.1042 H   0  0  0  0  0  0  0  0  0  0  0  0
    3.0579    1.3164    0.9165 H   0  0  0  0  0  0  0  0  0  0  0  0
    3.6728    0.1084    2.0286 H   0  0  0  0  0  0  0  0  0  0  0  0
    3.0188   -1.7290    0.4519 H   0  0  0  0  0  0  0  0  0  0  0  0
    2.4922   -0.5737   -0.7353 H   0  0  0  0  0  0  0  0  0  0  0  0
    1.7983   -2.0277    2.5129 H   0  0  0  0  0  0  0  0  0  0  0  0
    0.1785   -1.3897    2.6584 H   0  0  0  0  0  0  0  0  0  0  0  0
    1.5616   -0.3202    2.9431 H   0  0  0  0  0  0  0  0  0  0  0  0
    0.7395    1.2492    1.2153 H   0  0  0  0  0  0  0  0  0  0  0  0
    0.5809    0.6963   -0.4475 H   0  0  0  0  0  0  0  0  0  0  0  0
   -1.6014    1.1547    0.5015 H   0  0  0  0  0  0  0  0  0  0  0  0
   -1.3327    0.0746    1.8351 H   0  0  0  0  0  0  0  0  0  0  0  0
   -0.9078   -1.3419   -0.7346 H   0  0  0  0  0  0  0  0  0  0  0  0
   -1.7727   -1.8101    0.6773 H   0  0  0  0  0  0  0  0  0  0  0  0
   -3.7337    0.0339   -2.7152 H   0  0  0  0  0  0  0  0  0  0  0  0
   -1.3773    1.6601   -1.6487 H   0  0  0  0  0  0  0  0  0  0  0  0
   -3.0652    2.0589   -1.2623 H   0  0  0  0  0  0  0  0  0  0  0  0
   -2.5094    2.0613   -2.9327 H   0  0  0  0  0  0  0  0  0  0  0  0
   -1.7552   -0.0452   -4.0684 H   0  0  0  0  0  0  0  0  0  0  0  0
   -1.9469   -1.6206   -3.2935 H   0  0  0  0  0  0  0  0  0  0  0  0
   -0.7261   -0.4752   -2.7037 H   0  0  0  0  0  0  0  0  0  0  0  0
   -3.4890   -1.1883    1.9360 H   0  0  0  0  0  0  0  0  0  0  0  0
   -5.2433   -0.3501    3.3472 H   0  0  0  0  0  0  0  0  0  0  0  0
   -7.5719   -0.3042    3.8761 H   0  0  0  0  0  0  0  0  0  0  0  0
   -6.6503    1.1341    4.4753 H   0  0  0  0  0  0  0  0  0  0  0  0
   -8.4005    1.2151    4.2355 H   0  0  0  0  0  0  0  0  0  0  0  0
   -7.9139    0.3349   -1.3535 H   0  0  0  0  0  0  0  0  0  0  0  0
   -8.7815    1.8784   -1.4256 H   0  0  0  0  0  0  0  0  0  0  0  0
   -7.1715    1.7717   -2.1472 H   0  0  0  0  0  0  0  0  0  0  0  0
   -5.2116    0.8842   -1.4445 H   0  0  0  0  0  0  0  0  0  0  0  0
    5.6811   -1.2246    1.4501 H   0  0  0  0  0  0  0  0  0  0  0  0
    7.1313   -3.0282    0.9538 H   0  0  0  0  0  0  0  0  0  0  0  0
    7.7563   -1.9166    2.2293 H   0  0  0  0  0  0  0  0  0  0  0  0
    8.8596   -2.9530    1.3112 H   0  0  0  0  0  0  0  0  0  0  0  0
  1  2  1  0
  2  3  1  0
  3  4  2  0
  4  5  1  0
  5  6  2  0
  6  7  1  0
  7  8  1  0
  8  9  1  0
  9 10  1  0
  9 11  1  0
 11 12  1  0
 12 13  1  0
 13 14  1  0
 14 15  1  0
 15 16  3  0
 14 17  1  0
 17 18  1  0
 17 19  1  0
 14 20  1  0
 20 21  2  0
 21 22  1  0
 22 23  2  0
 23 24  1  0
 24 25  1  0
 23 26  1  0
 26 27  1  0
 27 28  1  0
 26 29  2  0
  6 30  1  0
 30 31  2  0
 31 32  1  0
 32 33  1  0
 31  3  1  0
 29 20  1  0
  1 34  1  0
  1 35  1  0
  1 36  1  0
  4 37  1  0
  5 38  1  0
  7 39  1  0
  7 40  1  0
  8 41  1  0
  8 42  1  0
 10 43  1  0
 10 44  1  0
 10 45  1  0
 11 46  1  0
 11 47  1  0
 12 48  1  0
 12 49  1  0
 13 50  1  0
 13 51  1  0
 17 52  1  0
 18 53  1  0
 18 54  1  0
 18 55  1  0
 19 56  1  0
 19 57  1  0
 19 58  1  0
 21 59  1  0
 22 60  1  0
 25 61  1  0
 25 62  1  0
 25 63  1  0
 28 64  1  0
 28 65  1  0
 28 66  1  0
 29 67  1  0
 30 68  1  0
 33 69  1  0
 33 70  1  0
 33 71  1  0
M  END
$$$$
decoy_trimethoprim
     RDKit          3D

 39 40  0  0  0  0  0  0  0  0999 V2000
   -3.3930   -1.6267    2.3204 C   0  0  0  0  0  0  0  0  0  0  0  0
   -3.4670   -1.4440    0.9060 O   0  0  0  0  0  0  0  0  0  0  0  0
   -2.4388   -0.6556    0.4574 C   0  0  0  0  0  0  0  0  0  0  0  0
   -1.4898   -1.2670   -0.3610 C   0  0  0  0  0  0  0  0  0  0  0  0
   -0.4204   -0.5251   -0.8782 C   0  0  0  0  0  0  0  0  0  0  0  0
    0.6145   -1.1843   -1.7619 C   0  0  0  0  0  0  0  0  0  0  0  0
    1.9749   -1.2776   -1.1365 C   0  0  0  0  0  0  0  0  0  0  0  0
    2.2320   -2.1918   -0.1335 C   0  0  0  0  0  0  0  0  0  0  0  0
    3.4194   -2.3168    0.4858 N   0  0  0  0  0  0  0  0  0  0  0  0
    4.3806   -1.4854    0.0842 C   0  0  0  0  0  0  0  0  0  0  0  0
    5.6032   -1.5734    0.7203 N   0  0  0  0  0  0  0  0  0  0  0  0
    4.2376   -0.5474   -0.8559 N   0  0  0  0  0  0  0  0  0  0  0  0
    3.0448   -0.4647   -1.4622 C   0  0  0  0  0  0  0  0  0  0  0  0
    2.9478    0.5356   -2.4325 N   0  0  0  0  0  0  0  0  0  0  0  0
   -0.3228    0.8447   -0.5692 C   0  0  0  0  0  0  0  0  0  0  0  0
   -1.2802    1.4716    0.2364 C   0  0  0  0  0  0  0  0  0  0  0  0
   -1.2674    2.8004    0.5741 O   0  0  0  0  0  0  0  0  0  0  0  0
   -0.0800    3.5285    0.2895 C   0  0  0  0  0  0  0  0  0  0  0  0
   -2.3586    0.7163    0.7238 C   0  0  0  0  0  0  0  0  0  0  0  0
   -3.3132    1.3254    1.5038 O   0  0  0  0  0  0  0  0  0  0  0  0
   -4.4016    1.7502    0.6823 C   0  0  0  0  0  0  0  0  0  0  0  0
   -2.3772   -1.8842    2.6436 H   0  0  0  0  0  0  0  0  0  0  0  0
   -4.0463   -2.4669    2.5786 H   0  0  0  0  0  0  0  0  0  0  0  0
   -3.7547   -0.7443    2.8556 H   0  0  0  0  0  0  0  0  0  0  0  0
   -1.5916   -2.3254   -0.5834 H   0  0  0  0  0  0  0  0  0  0  0  0
    0.6459   -0.6475   -2.7176 H   0  0  0  0  0  0  0  0  0  0  0  0
    0.2881   -2.1986   -2.0293 H   0  0  0  0  0  0  0  0  0  0  0  0
    1.4633   -2.8739    0.2211 H   0  0  0  0  0  0  0  0  0  0  0  0
    5.4714   -1.9716    1.6402 H   0  0  0  0  0  0  0  0  0  0  0  0
    6.0741   -0.6808    0.6678 H   0  0  0  0  0  0  0  0  0  0  0  0
    2.6618    0.1583   -3.3300 H   0  0  0  0  0  0  0  0  0  0  0  0
    3.8712    0.9623   -2.4990 H   0  0  0  0  0  0  0  0  0  0  0  0
    0.5116    1.4056   -0.9820 H   0  0  0  0  0  0  0  0  0  0  0  0
   -0.1865    4.5248    0.7288 H   0  0  0  0  0  0  0  0  0  0  0  0
    0.0534    3.6533   -0.7905 H   0  0  0  0  0  0  0  0  0  0  0  0
    0.7972    3.0583    0.7460 H   0  0  0  0  0  0  0  0  0  0  0  0
   -4.0709    2.4596   -0.0845 H   0  0  0  0  0  0  0  0  0  0  0  0
   -4.9076    0.8963    0.2180 H   0  0  0  0  0  0  0  0  0  0  0  0
   -5.1253    2.2618    1.3237 H   0  0  0  0  0  0  0  0  0  0  0  0
  1  2  1  0
  2  3  1  0
  3  4  2  0
  4  5  1  0
  5  6  1  0
  6  7  1  0
  7  8  2  0
  8  9  1  0
  9 10  2  0
 10 11  1  0
 10 12  1  0
 12 13  2  0
 13 14  1  0
  5 15  2  0
 15 16  1  0
 16 17  1  0
 17 18  1  0
 16 19  2  0
 19 20  1  0
 20 21  1  0
 19  3  1  0
 13  7  1  0
  1 22  1  0
  1 23  1  0
  1 24  1  0
  4 25  1  0
  6 26  1  0
  6 27  1  0
  8 28  1  0
 11 29  1  0
 11 30  1  0
 14 31  1  0
 14 32  1  0
 15 33  1  0
 18 34  1  0
 18 35  1  0
 18 36  1  0
 21 37  1  0
 21 38  1  0
 21 39  1  0
M  END
$$$$
decoy_tolbutamide
     RDKit          3D

 36 36  0  0  0  0  0  0  0  0999 V2000
    6.0238    0.3667    0.5006 C   0  0  0  0  0  0  0  0  0  0  0  0
    4.7614    1.2136    0.5182 C   0  0  0  0  0  0  0  0  0  0  0  0
    3.6856    0.6341   -0.3987 C   0  0  0  0  0  0  0  0  0  0  0  0
    2.4202    1.4889   -0.3789 C   0  0  0  0  0  0  0  0  0  0  0  0
    1.4071    0.9629   -1.2698 N   0  0  0  0  0  0  0  0  0  0  0  0
    0.5776   -0.0533   -0.8921 C   0  0  0  0  0  0  0  0  0  0  0  0
    0.5611   -0.5411    0.2251 O   0  0  0  0  0  0  0  0  0  0  0  0
   -0.2502   -0.4586   -1.9224 N   0  0  0  0  0  0  0  0  0  0  0  0
   -1.3519   -1.6978   -1.8313 S   0  0  0  0  0  6  0  0  0  0  0  0
   -0.6970   -2.8979   -1.3621 O   0  0  0  0  0  0  0  0  0  0  0  0
   -2.0351   -1.6856   -3.1105 O   0  0  0  0  0  0  0  0  0  0  0  0
   -2.5106   -1.1410   -0.6090 C   0  0  0  0  0  0  0  0  0  0  0  0
   -2.3744   -1.5572    0.7167 C   0  0  0  0  0  0  0  0  0  0  0  0
   -3.3074   -1.1429    1.6687 C   0  0  0  0  0  0  0  0  0  0  0  0
   -4.3793   -0.3179    1.3018 C   0  0  0  0  0  0  0  0  0  0  0  0
   -5.3998    0.0944    2.3219 C   0  0  0  0  0  0  0  0  0  0  0  0
   -4.5225    0.0657   -0.0386 C   0  0  0  0  0  0  0  0  0  0  0  0
   -3.5913   -0.3432   -0.9952 C   0  0  0  0  0  0  0  0  0  0  0  0
    6.4463    0.3133   -0.5079 H   0  0  0  0  0  0  0  0  0  0  0  0
    5.8170   -0.6529    0.8412 H   0  0  0  0  0  0  0  0  0  0  0  0
    6.7798    0.7994    1.1632 H   0  0  0  0  0  0  0  0  0  0  0  0
    4.3826    1.2730    1.5452 H   0  0  0  0  0  0  0  0  0  0  0  0
    5.0086    2.2342    0.2038 H   0  0  0  0  0  0  0  0  0  0  0  0
    4.0679    0.5693   -1.4252 H   0  0  0  0  0  0  0  0  0  0  0  0
    3.4481   -0.3908   -0.0882 H   0  0  0  0  0  0  0  0  0  0  0  0
    2.0105    1.5421    0.6360 H   0  0  0  0  0  0  0  0  0  0  0  0
    2.6403    2.5086   -0.7122 H   0  0  0  0  0  0  0  0  0  0  0  0
    1.4554    1.2081   -2.2455 H   0  0  0  0  0  0  0  0  0  0  0  0
   -0.2724    0.0230   -2.8094 H   0  0  0  0  0  0  0  0  0  0  0  0
   -1.5427   -2.1924    1.0162 H   0  0  0  0  0  0  0  0  0  0  0  0
   -3.1915   -1.4692    2.7003 H   0  0  0  0  0  0  0  0  0  0  0  0
   -5.8337    1.0674    2.0688 H   0  0  0  0  0  0  0  0  0  0  0  0
   -4.9443    0.1903    3.3132 H   0  0  0  0  0  0  0  0  0  0  0  0
   -6.2013   -0.6490    2.3707 H   0  0  0  0  0  0  0  0  0  0  0  0
   -5.3658    0.6814   -0.3450 H   0  0  0  0  0  0  0  0  0  0  0  0
   -3.7222   -0.0454   -2.0327 H   0  0  0  0  0  0  0  0  0  0  0  0
  1  2  1  0
  2  3  1  0
  3  4  1  0
  4  5  1  0
  5  6  1  0
  6  7  2  0
  6  8  1  0
  8  9  1  0
  9 10  2  0
  9 11  2  0
  9 12  1  0
 12 13  2  0
 13 14  1  0
 14 15  2  0
 15 16  1  0
 15 17  1  0
 17 18  2  0
 18 12  1  0
  1 19  1  0
  1 20  1  0
  1 21  1  0
  2 22  1  0
  2 23  1  0
  3 24  1  0
  3 25  1  0
  4 26  1  0
  4 27  1  0
  5 28  1  0
  8 29  1  0
 13 30  1  0
 14 31  1  0
 16 32  1  0
 16 33  1  0
 16 34  1  0
 17 35  1  0
 18 36  1  0
M  END
$$$$
decoy_theophylline
     RDKit          3D

 21 22  0  0  0  0  0  0  0  0999 V2000
   -2.7919   -1.0622   -0.1119 C   0  0  0  0  0  0  0  0  0  0  0  0
   -1.4139   -0.6153   -0.0636 N   0  0  0  0  0  0  0  0  0  0  0  0
   -0.4061   -1.5794   -0.1443 C   0  0  0  0  0  0  0  0  0  0  0  0
   -0.5906   -2.7871   -0.2538 O   0  0  0  0  0  0  0  0  0  0  0  0
    0.8924   -1.0155   -0.0859 C   0  0  0  0  0  0  0  0  0  0  0  0
    2.1210   -1.6057   -0.1317 N   0  0  0  0  0  0  0  0  0  0  0  0
    3.0443   -0.5965   -0.0356 C   0  0  0  0  0  0  0  0  0  0  0  0
    2.4681    0.5852    0.0672 N   0  0  0  0  0  0  0  0  0  0  0  0
    1.1334    0.3163    0.0351 C   0  0  0  0  0  0  0  0  0  0  0  0
    0.1093    1.2285    0.1110 N   0  0  0  0  0  0  0  0  0  0  0  0
    0.4034    2.6438    0.2399 C   0  0  0  0  0  0  0  0  0  0  0  0
   -1.2119    0.7769    0.0626 C   0  0  0  0  0  0  0  0  0  0  0  0
   -2.1698    1.5532    0.1267 O   0  0  0  0  0  0  0  0  0  0  0  0
   -3.2900   -0.5880   -0.9639 H   0  0  0  0  0  0  0  0  0  0  0  0
   -2.8779   -2.1472   -0.2099 H   0  0  0  0  0  0  0  0  0  0  0  0
   -3.3005   -0.7469    0.8050 H   0  0  0  0  0  0  0  0  0  0  0  0
    2.3071   -2.5967   -0.2196 H   0  0  0  0  0  0  0  0  0  0  0  0
    4.1103   -0.7839   -0.0461 H   0  0  0  0  0  0  0  0  0  0  0  0
   -0.5072    3.2466    0.2886 H   0  0  0  0  0  0  0  0  0  0  0  0
    0.9905    2.9669   -0.6256 H   0  0  0  0  0  0  0  0  0  0  0  0
    0.9800    2.8069    1.1559 H   0  0  0  0  0  0  0  0  0  0  0  0
  1  2  1  0
  2  3  1  0
  3  4  2  0
  3  5  1  0
  5  6  1  0
  6  7  1  0
  7  8  2  0
  8  9  1  0
  9 10  1  0
 10 11  1  0
 10 12  1  0
 12 13  2  0
 12  2  1  0
  9  5  2  0
  1 14  1  0
  1 15  1  0
  1 16  1  0
  6 17  1  0
  7 18  1  0
 11 19  1  0
 11 20  1  0
 11 21  1  0
M  END
$$$$
decoy_sertraline
     RDKit          3D

 37 39  0  0  0  0  0  0  0  0999 V2000
   -3.4596    0.0565    2.4362 C   0  0  0  0  0  0  0  0  0  0  0  0
   -2.6850    0.6344    1.3503 N   0  0  0  0  0  0  0  0  0  0  0  0
   -2.0396   -0.3671    0.4859 C   0  0  0  0  0  0  0  0  0  0  0  0
   -0.9276   -1.1101    1.2488 C   0  0  0  0  0  0  0  0  0  0  0  0
   -0.0765   -1.9474    0.3014 C   0  0  0  0  0  0  0  0  0  0  0  0
    0.6445   -1.0701   -0.7351 C   0  0  0  0  0  0  0  0  0  0  0  0
    1.9127   -0.4479   -0.1489 C   0  0  0  0  0  0  0  0  0  0  0  0
    1.9355    0.8383    0.4119 C   0  0  0  0  0  0  0  0  0  0  0  0
    3.1135    1.3635    0.9511 C   0  0  0  0  0  0  0  0  0  0  0  0
    4.2892    0.6104    0.9445 C   0  0  0  0  0  0  0  0  0  0  0  0
    5.7062    1.3226    1.6293 Cl  0  0  0  0  0  0  0  0  0  0  0  0
    4.2839   -0.6746    0.3960 C   0  0  0  0  0  0  0  0  0  0  0  0
    5.6954   -1.6710    0.3545 Cl  0  0  0  0  0  0  0  0  0  0  0  0
    3.1029   -1.1977   -0.1443 C   0  0  0  0  0  0  0  0  0  0  0  0
   -0.3000   -0.0713   -1.3871 C   0  0  0  0  0  0  0  0  0  0  0  0
    0.0870    0.5250   -2.6037 C   0  0  0  0  0  0  0  0  0  0  0  0
   -0.7394    1.4438   -3.2470 C   0  0  0  0  0  0  0  0  0  0  0  0
   -1.9674    1.7760   -2.6891 C   0  0  0  0  0  0  0  0  0  0  0  0
   -2.3644    1.1937   -1.4852 C   0  0  0  0  0  0  0  0  0  0  0  0
   -1.5370    0.2786   -0.8044 C   0  0  0  0  0  0  0  0  0  0  0  0
   -3.9968    0.8544    2.9586 H   0  0  0  0  0  0  0  0  0  0  0  0
   -4.2084   -0.6486    2.0615 H   0  0  0  0  0  0  0  0  0  0  0  0
   -2.8268   -0.4476    3.1723 H   0  0  0  0  0  0  0  0  0  0  0  0
   -1.9779    1.2674    1.7204 H   0  0  0  0  0  0  0  0  0  0  0  0
   -2.7908   -1.1036    0.1671 H   0  0  0  0  0  0  0  0  0  0  0  0
   -1.3693   -1.7751    2.0006 H   0  0  0  0  0  0  0  0  0  0  0  0
   -0.2895   -0.4048    1.7952 H   0  0  0  0  0  0  0  0  0  0  0  0
    0.6393   -2.5470    0.8768 H   0  0  0  0  0  0  0  0  0  0  0  0
   -0.7313   -2.6594   -0.2191 H   0  0  0  0  0  0  0  0  0  0  0  0
    0.9659   -1.7489   -1.5397 H   0  0  0  0  0  0  0  0  0  0  0  0
    1.0363    1.4524    0.4322 H   0  0  0  0  0  0  0  0  0  0  0  0
    3.1047    2.3653    1.3745 H   0  0  0  0  0  0  0  0  0  0  0  0
    3.1098   -2.2014   -0.5661 H   0  0  0  0  0  0  0  0  0  0  0  0
    1.0442    0.2722   -3.0561 H   0  0  0  0  0  0  0  0  0  0  0  0
   -0.4266    1.8954   -4.1845 H   0  0  0  0  0  0  0  0  0  0  0  0
   -2.6213    2.4852   -3.1893 H   0  0  0  0  0  0  0  0  0  0  0  0
   -3.3358    1.4584   -1.0696 H   0  0  0  0  0  0  0  0  0  0  0  0
  1  2  1  0
  2  3  1  0
  3  4  1  0
  4  5  1  0
  5  6  1  0
  6  7  1  0
  7  8  2  0
  8  9  1  0
  9 10  2  0
 10 11  1  0
 10 12  1  0
 12 13  1  0
 12 14  2  0
  6 15  1  0
 15 16  2  0
 16 17  1  0
 17 18  2  0
 18 19  1  0
 19 20  2  0
 20  3  1  0
 14  7  1  0
 20 15  1  0
  1 21  1  0
  1 22  1  0
  1 23  1  0
  2 24  1  0
  3 25  1  0
  4 26  1  0
  4 27  1  0
  5 28  1  0
  5 29  1  0
  6 30  1  0
  8 31  1  0
  9 32  1  0
 14 33  1  0
 16 34  1  0
 17 35  1  0
 18 36  1  0
 19 37  1  0
M  END
$$$$
decoy_salbutamol
     RDKit          3D

 38 38  0  0  0  0  0  0  0  0999 V2000
   -4.5355    1.2200    0.4157 C   0  0  0  0  0  0  0  0  0  0  0  0
   -3.3373    0.2485    0.2899 C   0  0  0  0  0  0  0  0  0  0  0  0
   -3.6865   -0.7829   -0.7942 C   0  0  0  0  0  0  0  0  0  0  0  0
   -3.1700   -0.4358    1.6556 C   0  0  0  0  0  0  0  0  0  0  0  0
   -2.1693    1.0915   -0.0353 N   0  0  0  0  0  0  0  0  0  0  0  0
   -0.9763    0.4549   -0.6317 C   0  0  0  0  0  0  0  0  0  0  0  0
   -0.1240   -0.4695    0.2745 C   0  0  0  0  0  0  0  0  0  0  0  0
   -0.5795   -1.8236    0.1842 O   0  0  0  0  0  0  0  0  0  0  0  0
    1.3428   -0.4480   -0.1199 C   0  0  0  0  0  0  0  0  0  0  0  0
    1.7743   -1.0154   -1.3254 C   0  0  0  0  0  0  0  0  0  0  0  0
    3.1220   -0.9802   -1.6756 C   0  0  0  0  0  0  0  0  0  0  0  0
    4.0521   -0.3784   -0.8288 C   0  0  0  0  0  0  0  0  0  0  0  0
    5.3440   -0.3941   -1.2766 O   0  0  0  0  0  0  0  0  0  0  0  0
    3.6609    0.1943    0.3898 C   0  0  0  0  0  0  0  0  0  0  0  0
    4.6599    0.8447    1.3139 C   0  0  0  0  0  0  0  0  0  0  0  0
    4.0804    1.2667    2.5417 O   0  0  0  0  0  0  0  0  0  0  0  0
    2.2931    0.1534    0.7230 C   0  0  0  0  0  0  0  0  0  0  0  0
   -4.3546    1.9828    1.1828 H   0  0  0  0  0  0  0  0  0  0  0  0
   -4.7351    1.7375   -0.5305 H   0  0  0  0  0  0  0  0  0  0  0  0
   -5.4516    0.6858    0.6943 H   0  0  0  0  0  0  0  0  0  0  0  0
   -4.6339   -1.2851   -0.5653 H   0  0  0  0  0  0  0  0  0  0  0  0
   -3.7987   -0.3060   -1.7748 H   0  0  0  0  0  0  0  0  0  0  0  0
   -2.9268   -1.5645   -0.8839 H   0  0  0  0  0  0  0  0  0  0  0  0
   -4.1124   -0.8926    1.9812 H   0  0  0  0  0  0  0  0  0  0  0  0
   -2.8748    0.2839    2.4282 H   0  0  0  0  0  0  0  0  0  0  0  0
   -2.4268   -1.2340    1.6412 H   0  0  0  0  0  0  0  0  0  0  0  0
   -2.4699    1.8140   -0.6911 H   0  0  0  0  0  0  0  0  0  0  0  0
   -0.3426    1.3003   -0.9316 H   0  0  0  0  0  0  0  0  0  0  0  0
   -1.2460   -0.0573   -1.5627 H   0  0  0  0  0  0  0  0  0  0  0  0
   -0.2214   -0.1602    1.3217 H   0  0  0  0  0  0  0  0  0  0  0  0
    0.1197   -2.3758    0.5745 H   0  0  0  0  0  0  0  0  0  0  0  0
    1.0604   -1.4901   -1.9957 H   0  0  0  0  0  0  0  0  0  0  0  0
    3.4499   -1.4214   -2.6132 H   0  0  0  0  0  0  0  0  0  0  0  0
    5.9166    0.1077   -0.6796 H   0  0  0  0  0  0  0  0  0  0  0  0
    5.4565    0.1323    1.5528 H   0  0  0  0  0  0  0  0  0  0  0  0
    5.0895    1.7246    0.8239 H   0  0  0  0  0  0  0  0  0  0  0  0
    4.7911    1.6716    3.0662 H   0  0  0  0  0  0  0  0  0  0  0  0
    1.9597    0.6005    1.6597 H   0  0  0  0  0  0  0  0  0  0  0  0
  1  2  1  0
  2  3  1  0
  2  4  1  0
  2  5  1  0
  5  6  1  0
  6  7  1  0
  7  8  1  0
  7  9  1  0
  9 10  2  0
 10 11  1  0
 11 12  2  0
 12 13  1  0
 12 14  1  0
 14 15  1  0
 15 16  1  0
 14 17  2  0
 17  9  1  0
  1 18  1  0
  1 19  1  0
  1 20  1  0
  3 21  1  0
  3 22  1  0
  3 23  1  0
  4 24  1  0
  4 25  1  0
  4 26  1  0
  5 27  1  0
  6 28  1  0
  6 29  1  0
  7 30  1  0
  8 31  1  0
 10 32  1  0
 11 33  1  0
 13 34  1  0
 15 35  1  0
 15 36  1  0
 16 37  1  0
 17 38  1  0
M  END
$$$$
decoy_pyrimethamine
     RDKit          3D

 30 31  0  0  0  0  0  0  0  0999 V2000
   -2.4756    2.1658    1.1618 C   0  0  0  0  0  0  0  0  0  0  0  0
   -1.1337    1.4854    0.9131 C   0  0  0  0  0  0  0  0  0  0  0  0
   -1.2253    0.1118    0.2787 C   0  0  0  0  0  0  0  0  0  0  0  0
   -2.4569   -0.4448    0.2080 N   0  0  0  0  0  0  0  0  0  0  0  0
   -2.5599   -1.6513   -0.3479 C   0  0  0  0  0  0  0  0  0  0  0  0
   -3.8218   -2.2007   -0.4399 N   0  0  0  0  0  0  0  0  0  0  0  0
   -1.5457   -2.3437   -0.8605 N   0  0  0  0  0  0  0  0  0  0  0  0
   -0.3275   -1.7921   -0.7645 C   0  0  0  0  0  0  0  0  0  0  0  0
    0.7020   -2.5514   -1.3332 N   0  0  0  0  0  0  0  0  0  0  0  0
   -0.0864   -0.5415   -0.1935 C   0  0  0  0  0  0  0  0  0  0  0  0
    1.2643    0.0324   -0.1034 C   0  0  0  0  0  0  0  0  0  0  0  0
    1.9607    0.0460    1.1171 C   0  0  0  0  0  0  0  0  0  0  0  0
    3.2447    0.5921    1.2019 C   0  0  0  0  0  0  0  0  0  0  0  0
    3.8460    1.1265    0.0650 C   0  0  0  0  0  0  0  0  0  0  0  0
    5.4262    1.7976    0.1692 Cl  0  0  0  0  0  0  0  0  0  0  0  0
    3.1761    1.1178   -1.1555 C   0  0  0  0  0  0  0  0  0  0  0  0
    1.8920    0.5722   -1.2384 C   0  0  0  0  0  0  0  0  0  0  0  0
   -3.0928    1.5880    1.8580 H   0  0  0  0  0  0  0  0  0  0  0  0
   -2.3192    3.1581    1.5970 H   0  0  0  0  0  0  0  0  0  0  0  0
   -3.0364    2.2896    0.2292 H   0  0  0  0  0  0  0  0  0  0  0  0
   -0.6081    1.3952    1.8706 H   0  0  0  0  0  0  0  0  0  0  0  0
   -0.5439    2.1418    0.2623 H   0  0  0  0  0  0  0  0  0  0  0  0
   -3.8546   -2.8446   -1.2174 H   0  0  0  0  0  0  0  0  0  0  0  0
   -4.5113   -1.4624   -0.4204 H   0  0  0  0  0  0  0  0  0  0  0  0
    0.3038   -3.4433   -1.6154 H   0  0  0  0  0  0  0  0  0  0  0  0
    1.4853   -2.6608   -0.6987 H   0  0  0  0  0  0  0  0  0  0  0  0
    1.5048   -0.3717    2.0134 H   0  0  0  0  0  0  0  0  0  0  0  0
    3.7676    0.5959    2.1548 H   0  0  0  0  0  0  0  0  0  0  0  0
    3.6447    1.5292   -2.0456 H   0  0  0  0  0  0  0  0  0  0  0  0
    1.3810    0.5630   -2.2003 H   0  0  0  0  0  0  0  0  0  0  0  0
  1  2  1  0
  2  3  1  0
  3  4  2  0
  4  5  1  0
  5  6  1  0
  5  7  2  0
  7  8  1  0
  8  9  1  0
  8 10  2  0
 10 11  1  0
 11 12  2  0
 12 13  1  0
 13 14  2  0
 14 15  1  0
 14 16  1  0
 16 17  2  0
 10  3  1  0
 17 11  1  0
  1 18  1  0
  1 19  1  0
  1 20  1  0
  2 21  1  0
  2 22  1  0
  6 23  1  0
  6 24  1  0
  9 25  1  0
  9 26  1  0
 12 27  1  0
 13 28  1  0
 16 29  1  0
 17 30  1  0
M  END
$$$$
decoy_propranolol
     RDKit          3D

 40 41  0  0  0  0  0  0  0  0999 V2000
   -4.7246   -0.4409    0.7016 C   0  0  0  0  0  0  0  0  0  0  0  0
   -4.1850    0.9699    0.4676 C   0  0  0  0  0  0  0  0  0  0  0  0
   -5.2716    1.8403   -0.1682 C   0  0  0  0  0  0  0  0  0  0  0  0
   -3.0148    1.0062   -0.4114 N   0  0  0  0  0  0  0  0  0  0  0  0
   -1.8075    0.3777    0.1429 C   0  0  0  0  0  0  0  0  0  0  0  0
   -1.5368   -1.0150   -0.4700 C   0  0  0  0  0  0  0  0  0  0  0  0
   -1.5185   -0.9083   -1.9031 O   0  0  0  0  0  0  0  0  0  0  0  0
   -0.2105   -1.6153    0.0172 C   0  0  0  0  0  0  0  0  0  0  0  0
    0.8520   -0.7199   -0.3254 O   0  0  0  0  0  0  0  0  0  0  0  0
    2.1014   -0.9960    0.1773 C   0  0  0  0  0  0  0  0  0  0  0  0
    2.4623   -2.2308    0.7270 C   0  0  0  0  0  0  0  0  0  0  0  0
    3.7545   -2.4364    1.2065 C   0  0  0  0  0  0  0  0  0  0  0  0
    4.6976   -1.4137    1.1364 C   0  0  0  0  0  0  0  0  0  0  0  0
    4.3656   -0.1695    0.5823 C   0  0  0  0  0  0  0  0  0  0  0  0
    5.3218    0.8575    0.5097 C   0  0  0  0  0  0  0  0  0  0  0  0
    5.0010    2.0984   -0.0399 C   0  0  0  0  0  0  0  0  0  0  0  0
    3.7195    2.3292   -0.5241 C   0  0  0  0  0  0  0  0  0  0  0  0
    2.7588    1.3180   -0.4588 C   0  0  0  0  0  0  0  0  0  0  0  0
    3.0551    0.0512    0.0918 C   0  0  0  0  0  0  0  0  0  0  0  0
   -5.6557   -0.4075    1.2781 H   0  0  0  0  0  0  0  0  0  0  0  0
   -4.0157   -1.0496    1.2715 H   0  0  0  0  0  0  0  0  0  0  0  0
   -4.9359   -0.9524   -0.2439 H   0  0  0  0  0  0  0  0  0  0  0  0
   -3.9276    1.4194    1.4346 H   0  0  0  0  0  0  0  0  0  0  0  0
   -6.1548    1.8901    0.4781 H   0  0  0  0  0  0  0  0  0  0  0  0
   -4.9158    2.8659   -0.3187 H   0  0  0  0  0  0  0  0  0  0  0  0
   -5.5884    1.4451   -1.1402 H   0  0  0  0  0  0  0  0  0  0  0  0
   -3.2241    0.5695   -1.3141 H   0  0  0  0  0  0  0  0  0  0  0  0
   -0.9809    1.0477   -0.1202 H   0  0  0  0  0  0  0  0  0  0  0  0
   -1.8333    0.3241    1.2375 H   0  0  0  0  0  0  0  0  0  0  0  0
   -2.3466   -1.7062   -0.2180 H   0  0  0  0  0  0  0  0  0  0  0  0
   -0.7411   -0.3589   -2.1211 H   0  0  0  0  0  0  0  0  0  0  0  0
   -0.2547   -1.7628    1.1028 H   0  0  0  0  0  0  0  0  0  0  0  0
   -0.0482   -2.5715   -0.4938 H   0  0  0  0  0  0  0  0  0  0  0  0
    1.7643   -3.0590    0.7858 H   0  0  0  0  0  0  0  0  0  0  0  0
    4.0299   -3.3983    1.6317 H   0  0  0  0  0  0  0  0  0  0  0  0
    5.7006   -1.5976    1.5156 H   0  0  0  0  0  0  0  0  0  0  0  0
    6.3309    0.6969    0.8833 H   0  0  0  0  0  0  0  0  0  0  0  0
    5.7517    2.8826   -0.0889 H   0  0  0  0  0  0  0  0  0  0  0  0
    3.4626    3.2941   -0.9532 H   0  0  0  0  0  0  0  0  0  0  0  0
    1.7625    1.5256   -0.8439 H   0  0  0  0  0  0  0  0  0  0  0  0
  1  2  1  0
  2  3  1  0
  2  4  1  0
  4  5  1  0
  5  6  1  0
  6  7  1  0
  6  8  1  0
  8  9  1  0
  9 10  1  0
 10 11  2  0
 11 12  1  0
 12 13  2  0
 13 14  1  0
 14 15  2  0
 15 16  1  0
 16 17  2  0
 17 18  1  0
 18 19  2  0
 19 10  1  0
 19 14  1  0
  1 20  1  0
  1 21  1  0
  1 22  1  0
  2 23  1  0
  3 24  1  0
  3 25  1  0
  3 26  1  0
  4 27  1  0
  5 28  1  0
  5 29  1  0
  6 30  1  0
  7 31  1  0
  8 32  1  0
  8 33  1  0
 11 34  1  0
 12 35  1  0
 13 36  1  0
 15 37  1  0
 16 38  1  0
 17 39  1  0
 18 40  1  0
M  END
$$$$
decoy_procainamide
     RDKit          3D

 38 38  0  0  0  0  0  0  0  0999 V2000
   -3.7173    1.5614    0.4718 C   0  0  0  0  0  0  0  0  0  0  0  0
   -3.9544    0.0545    0.5348 C   0  0  0  0  0  0  0  0  0  0  0  0
   -3.1531   -0.7965   -0.3487 N   0  0  0  0  0  0  0  0  0  0  0  0
   -3.7697   -1.0809   -1.6485 C   0  0  0  0  0  0  0  0  0  0  0  0
   -3.8965    0.0853   -2.6202 C   0  0  0  0  0  0  0  0  0  0  0  0
   -1.7224   -0.4730   -0.4456 C   0  0  0  0  0  0  0  0  0  0  0  0
   -0.9592   -0.6567    0.8816 C   0  0  0  0  0  0  0  0  0  0  0  0
    0.4216   -0.2050    0.8049 N   0  0  0  0  0  0  0  0  0  0  0  0
    1.3827   -0.9375    0.1395 C   0  0  0  0  0  0  0  0  0  0  0  0
    1.1446   -1.9697   -0.4759 O   0  0  0  0  0  0  0  0  0  0  0  0
    2.7782   -0.4263    0.2272 C   0  0  0  0  0  0  0  0  0  0  0  0
    3.0642    0.9351    0.3747 C   0  0  0  0  0  0  0  0  0  0  0  0
    4.3937    1.3651    0.4526 C   0  0  0  0  0  0  0  0  0  0  0  0
    5.4492    0.4561    0.3364 C   0  0  0  0  0  0  0  0  0  0  0  0
    6.7671    0.8785    0.5383 N   0  0  0  0  0  0  0  0  0  0  0  0
    5.1545   -0.9055    0.2334 C   0  0  0  0  0  0  0  0  0  0  0  0
    3.8297   -1.3450    0.1514 C   0  0  0  0  0  0  0  0  0  0  0  0
   -2.7108    1.8285    0.8078 H   0  0  0  0  0  0  0  0  0  0  0  0
   -4.4241    2.0720    1.1348 H   0  0  0  0  0  0  0  0  0  0  0  0
   -3.8603    1.9643   -0.5328 H   0  0  0  0  0  0  0  0  0  0  0  0
   -5.0222   -0.1417    0.3738 H   0  0  0  0  0  0  0  0  0  0  0  0
   -3.7695   -0.2674    1.5673 H   0  0  0  0  0  0  0  0  0  0  0  0
   -3.1994   -1.8801   -2.1394 H   0  0  0  0  0  0  0  0  0  0  0  0
   -4.7657   -1.5124   -1.4860 H   0  0  0  0  0  0  0  0  0  0  0  0
   -4.2551   -0.2797   -3.5887 H   0  0  0  0  0  0  0  0  0  0  0  0
   -4.6212    0.8238   -2.2672 H   0  0  0  0  0  0  0  0  0  0  0  0
   -2.9374    0.5826   -2.7911 H   0  0  0  0  0  0  0  0  0  0  0  0
   -1.5717    0.5450   -0.8250 H   0  0  0  0  0  0  0  0  0  0  0  0
   -1.2544   -1.1355   -1.1848 H   0  0  0  0  0  0  0  0  0  0  0  0
   -1.4204   -0.0764    1.6864 H   0  0  0  0  0  0  0  0  0  0  0  0
   -0.9644   -1.7117    1.1791 H   0  0  0  0  0  0  0  0  0  0  0  0
    0.7181    0.4976    1.4678 H   0  0  0  0  0  0  0  0  0  0  0  0
    2.2717    1.6761    0.4156 H   0  0  0  0  0  0  0  0  0  0  0  0
    4.5996    2.4228    0.5964 H   0  0  0  0  0  0  0  0  0  0  0  0
    7.4639    0.2530    0.1449 H   0  0  0  0  0  0  0  0  0  0  0  0
    6.9350    1.8470    0.2849 H   0  0  0  0  0  0  0  0  0  0  0  0
    5.9550   -1.6404    0.2104 H   0  0  0  0  0  0  0  0  0  0  0  0
    3.6205   -2.4076    0.0448 H   0  0  0  0  0  0  0  0  0  0  0  0
  1  2  1  0
  2  3  1  0
  3  4  1  0
  4  5  1  0
  3  6  1  0
  6  7  1  0
  7  8  1  0
  8  9  1  0
  9 10  2  0
  9 11  1  0
 11 12  2  0
 12 13  1  0
 13 14  2  0
 14 15  1  0
 14 16  1  0
 16 17  2  0
 17 11  1  0
  1 18  1  0
  1 19  1  0
  1 20  1  0
  2 21  1  0
  2 22  1  0
  4 23  1  0
  4 24  1  0
  5 25  1  0
  5 26  1  0
  5 27  1  0
  6 28  1  0
  6 29  1  0
  7 30  1  0
  7 31  1  0
  8 32  1  0
 12 33  1  0
 13 34  1  0
 15 35  1  0
 15 36  1  0
 16 37  1  0
 17 38  1  0
M  END
$$$$
decoy_phenytoin
     RDKit          3D

 31 33  0  0  0  0  0  0  0  0999 V2000
    0.5369    3.8533   -1.7029 O   0  0  0  0  0  0  0  0  0  0  0  0
    0.4723    2.9522   -0.8864 C   0  0  0  0  0  0  0  0  0  0  0  0
    0.5301    3.0888    0.4531 N   0  0  0  0  0  0  0  0  0  0  0  0
    0.2924    1.8960    1.0657 C   0  0  0  0  0  0  0  0  0  0  0  0
    0.2081    1.7683    2.2814 O   0  0  0  0  0  0  0  0  0  0  0  0
    0.1343    0.7842   -0.0208 C   0  0  0  0  0  0  0  0  0  0  0  0
   -1.2599    0.1440   -0.0936 C   0  0  0  0  0  0  0  0  0  0  0  0
   -1.5242   -0.8262   -1.0841 C   0  0  0  0  0  0  0  0  0  0  0  0
   -2.7810   -1.4243   -1.1957 C   0  0  0  0  0  0  0  0  0  0  0  0
   -3.8018   -1.0647   -0.3223 C   0  0  0  0  0  0  0  0  0  0  0  0
   -3.5655   -0.1096    0.6623 C   0  0  0  0  0  0  0  0  0  0  0  0
   -2.3078    0.4906    0.7766 C   0  0  0  0  0  0  0  0  0  0  0  0
    1.2620   -0.2468    0.1317 C   0  0  0  0  0  0  0  0  0  0  0  0
    2.3201   -0.3542   -0.7896 C   0  0  0  0  0  0  0  0  0  0  0  0
    3.3285   -1.3063   -0.6172 C   0  0  0  0  0  0  0  0  0  0  0  0
    3.3009   -2.1657    0.4776 C   0  0  0  0  0  0  0  0  0  0  0  0
    2.2671   -2.0738    1.4044 C   0  0  0  0  0  0  0  0  0  0  0  0
    1.2584   -1.1235    1.2347 C   0  0  0  0  0  0  0  0  0  0  0  0
    0.3033    1.6305   -1.1931 N   0  0  0  0  0  0  0  0  0  0  0  0
    0.6190    3.9696    0.9285 H   0  0  0  0  0  0  0  0  0  0  0  0
   -0.7416   -1.1330   -1.7764 H   0  0  0  0  0  0  0  0  0  0  0  0
   -2.9606   -2.1732   -1.9630 H   0  0  0  0  0  0  0  0  0  0  0  0
   -4.7805   -1.5298   -0.4062 H   0  0  0  0  0  0  0  0  0  0  0  0
   -4.3622    0.1700    1.3477 H   0  0  0  0  0  0  0  0  0  0  0  0
   -2.1740    1.2273    1.5659 H   0  0  0  0  0  0  0  0  0  0  0  0
    2.3826    0.3031   -1.6540 H   0  0  0  0  0  0  0  0  0  0  0  0
    4.1395   -1.3741   -1.3383 H   0  0  0  0  0  0  0  0  0  0  0  0
    4.0873   -2.9041    0.6111 H   0  0  0  0  0  0  0  0  0  0  0  0
    2.2449   -2.7397    2.2635 H   0  0  0  0  0  0  0  0  0  0  0  0
    0.4639   -1.0691    1.9789 H   0  0  0  0  0  0  0  0  0  0  0  0
    0.1075    1.3403   -2.1396 H   0  0  0  0  0  0  0  0  0  0  0  0
  1  2  2  0
  2  3  1  0
  3  4  1  0
  4  5  2  0
  4  6  1  0
  6  7  1  0
  7  8  2  0
  8  9  1  0
  9 10  2  0
 10 11  1  0
 11 12  2  0
  6 13  1  0
 13 14  2  0
 14 15  1  0
 15 16  2  0
 16 17  1  0
 17 18  2  0
  6 19  1  0
 19  2  1  0
 12  7  1  0
 18 13  1  0
  3 20  1  0
  8 21  1  0
  9 22  1  0
 10 23  1  0
 11 24  1  0
 12 25  1  0
 14 26  1  0
 15 27  1  0
 16 28  1  0
 17 29  1  0
 18 30  1  0
 19 31  1  0
M  END
$$$$
decoy_omeprazole
     RDKit          3D

 43 45  0  0  0  0  0  0  0  0999 V2000
    8.0694   -0.9792   -0.8279 C   0  0  0  0  0  0  0  0  0  0  0  0
    6.7094   -1.3853   -0.8941 O   0  0  0  0  0  0  0  0  0  0  0  0
    5.7630   -0.3940   -0.9079 C   0  0  0  0  0  0  0  0  0  0  0  0
    6.0155    0.9786   -0.7853 C   0  0  0  0  0  0  0  0  0  0  0  0
    4.9745    1.9178   -0.8078 C   0  0  0  0  0  0  0  0  0  0  0  0
    3.6816    1.4210   -0.9662 C   0  0  0  0  0  0  0  0  0  0  0  0
    2.4567    2.0305   -1.0271 N   0  0  0  0  0  0  0  0  0  0  0  0
    1.5098    1.0598   -1.2056 C   0  0  0  0  0  0  0  0  0  0  0  0
   -0.2469    1.4377   -1.3422 S   0  0  0  0  0  4  0  0  0  0  0  0
   -0.4188    2.7174   -0.5735 O   0  0  0  0  0  0  0  0  0  0  0  0
   -0.8472    0.0369   -0.3453 C   0  0  0  0  0  0  0  0  0  0  0  0
   -2.3553    0.0043   -0.2705 C   0  0  0  0  0  0  0  0  0  0  0  0
   -3.0013    0.0574   -1.4668 N   0  0  0  0  0  0  0  0  0  0  0  0
   -4.3514    0.0587   -1.4657 C   0  0  0  0  0  0  0  0  0  0  0  0
   -5.1294   -0.0446   -0.3266 C   0  0  0  0  0  0  0  0  0  0  0  0
   -6.6212   -0.0114   -0.4369 C   0  0  0  0  0  0  0  0  0  0  0  0
   -4.4474   -0.2210    0.8800 C   0  0  0  0  0  0  0  0  0  0  0  0
   -5.1669   -0.3944    2.0388 O   0  0  0  0  0  0  0  0  0  0  0  0
   -5.4468   -1.7843    2.2337 C   0  0  0  0  0  0  0  0  0  0  0  0
   -3.0444   -0.1603    0.9409 C   0  0  0  0  0  0  0  0  0  0  0  0
   -2.3171   -0.2578    2.2529 C   0  0  0  0  0  0  0  0  0  0  0  0
    2.0437   -0.1420   -1.2467 N   0  0  0  0  0  0  0  0  0  0  0  0
    3.3954    0.0656   -1.0963 C   0  0  0  0  0  0  0  0  0  0  0  0
    4.4479   -0.8591   -1.0619 C   0  0  0  0  0  0  0  0  0  0  0  0
    8.3416   -0.3750   -1.6992 H   0  0  0  0  0  0  0  0  0  0  0  0
    8.6912   -1.8802   -0.8337 H   0  0  0  0  0  0  0  0  0  0  0  0
    8.2789   -0.4455    0.1051 H   0  0  0  0  0  0  0  0  0  0  0  0
    7.0287    1.3575   -0.6740 H   0  0  0  0  0  0  0  0  0  0  0  0
    5.1751    2.9816   -0.7211 H   0  0  0  0  0  0  0  0  0  0  0  0
    2.2562    3.0182   -0.9466 H   0  0  0  0  0  0  0  0  0  0  0  0
   -0.5107   -0.8959   -0.8139 H   0  0  0  0  0  0  0  0  0  0  0  0
   -0.3779    0.1157    0.6373 H   0  0  0  0  0  0  0  0  0  0  0  0
   -4.8029    0.1527   -2.4497 H   0  0  0  0  0  0  0  0  0  0  0  0
   -6.9984   -0.9785   -0.7900 H   0  0  0  0  0  0  0  0  0  0  0  0
   -7.0979    0.2220    0.5225 H   0  0  0  0  0  0  0  0  0  0  0  0
   -6.9321    0.7703   -1.1418 H   0  0  0  0  0  0  0  0  0  0  0  0
   -6.1038   -2.1694    1.4454 H   0  0  0  0  0  0  0  0  0  0  0  0
   -5.9627   -1.8913    3.1932 H   0  0  0  0  0  0  0  0  0  0  0  0
   -4.5253   -2.3752    2.2779 H   0  0  0  0  0  0  0  0  0  0  0  0
   -1.7323    0.6520    2.4260 H   0  0  0  0  0  0  0  0  0  0  0  0
   -1.6516   -1.1274    2.2529 H   0  0  0  0  0  0  0  0  0  0  0  0
   -2.9897   -0.3649    3.1070 H   0  0  0  0  0  0  0  0  0  0  0  0
    4.2410   -1.9190   -1.1618 H   0  0  0  0  0  0  0  0  0  0  0  0
  1  2  1  0
  2  3  1  0
  3  4  2  0
  4  5  1  0
  5  6  2  0
  6  7  1  0
  7  8  1  0
  8  9  1  0
  9 10  2  0
  9 11  1  0
 11 12  1  0
 12 13  2  0
 13 14  1  0
 14 15  2  0
 15 16  1  0
 15 17  1  0
 17 18  1  0
 18 19  1  0
 17 20  2  0
 20 21  1  0
  8 22  2  0
 22 23  1  0
 23 24  2  0
 24  3  1  0
 23  6  1  0
 20 12  1  0
  1 25  1  0
  1 26  1  0
  1 27  1  0
  4 28  1  0
  5 29  1  0
  7 30  1  0
 11 31  1  0
 11 32  1  0
 14 33  1  0
 16 34  1  0
 16 35  1  0
 16 36  1  0
 19 37  1  0
 19 38  1  0
 19 39  1  0
 21 40  1  0
 21 41  1  0
 21 42  1  0
 24 43  1  0
M  END
$$$$
decoy_nicotine
     RDKit          3D

 26 27  0  0  0  0  0  0  0  0999 V2000
   -1.2532   -1.6179    1.6104 C   0  0  0  0  0  0  0  0  0  0  0  0
   -1.2330   -0.8164    0.3930 N   0  0  0  0  0  0  0  0  0  0  0  0
   -2.5696   -0.3613    0.0120 C   0  0  0  0  0  0  0  0  0  0  0  0
   -2.2572    0.6801   -1.0442 C   0  0  0  0  0  0  0  0  0  0  0  0
   -0.9949    1.3624   -0.5322 C   0  0  0  0  0  0  0  0  0  0  0  0
   -0.4133    0.4032    0.5202 C   0  0  0  0  0  0  0  0  0  0  0  0
    1.0615    0.1651    0.3154 C   0  0  0  0  0  0  0  0  0  0  0  0
    2.0127    0.8040    1.1181 C   0  0  0  0  0  0  0  0  0  0  0  0
    3.3697    0.5881    0.8927 C   0  0  0  0  0  0  0  0  0  0  0  0
    3.7374   -0.2598   -0.1382 C   0  0  0  0  0  0  0  0  0  0  0  0
    2.8555   -0.8909   -0.9400 N   0  0  0  0  0  0  0  0  0  0  0  0
    1.5425   -0.6658   -0.6943 C   0  0  0  0  0  0  0  0  0  0  0  0
   -1.8704   -2.5115    1.4658 H   0  0  0  0  0  0  0  0  0  0  0  0
   -1.6503   -1.0637    2.4685 H   0  0  0  0  0  0  0  0  0  0  0  0
   -0.2466   -1.9676    1.8635 H   0  0  0  0  0  0  0  0  0  0  0  0
   -3.1005    0.1003    0.8543 H   0  0  0  0  0  0  0  0  0  0  0  0
   -3.1827   -1.1729   -0.3919 H   0  0  0  0  0  0  0  0  0  0  0  0
   -3.0791    1.3873   -1.1902 H   0  0  0  0  0  0  0  0  0  0  0  0
   -2.0513    0.1961   -2.0071 H   0  0  0  0  0  0  0  0  0  0  0  0
   -0.3161    1.5806   -1.3643 H   0  0  0  0  0  0  0  0  0  0  0  0
   -1.2536    2.3176   -0.0592 H   0  0  0  0  0  0  0  0  0  0  0  0
   -0.5766    0.8530    1.5103 H   0  0  0  0  0  0  0  0  0  0  0  0
    1.7040    1.4706    1.9190 H   0  0  0  0  0  0  0  0  0  0  0  0
    4.1226    1.0711    1.5049 H   0  0  0  0  0  0  0  0  0  0  0  0
    4.7829   -0.4591   -0.3536 H   0  0  0  0  0  0  0  0  0  0  0  0
    0.8598   -1.1924   -1.3573 H   0  0  0  0  0  0  0  0  0  0  0  0
  1  2  1  0
  2  3  1  0
  3  4  1  0
  4  5  1  0
  5  6  1  0
  6  7  1  0
  7  8  2  0
  8  9  1  0
  9 10  2  0
 10 11  1  0
 11 12  2  0
  6  2  1  0
 12  7  1  0
  1 13  1  0
  1 14  1  0
  1 15  1  0
  3 16  1  0
  3 17  1  0
  4 18  1  0
  4 19  1  0
  5 20  1  0
  5 21  1  0
  6 22  1  0
  8 23  1  0
  9 24  1  0
 10 25  1  0
 12 26  1  0
M  END
$$$$
decoy_naproxen
     RDKit          3D

 31 32  0  0  0  0  0  0  0  0999 V2000
    5.6066   -0.3390    0.4940 C   0  0  0  0  0  0  0  0  0  0  0  0
    4.4305   -0.5906    1.2525 O   0  0  0  0  0  0  0  0  0  0  0  0
    3.2334   -0.3382    0.6401 C   0  0  0  0  0  0  0  0  0  0  0  0
    3.0611    0.1413   -0.6562 C   0  0  0  0  0  0  0  0  0  0  0  0
    1.7733    0.3560   -1.1599 C   0  0  0  0  0  0  0  0  0  0  0  0
    0.6381    0.0947   -0.3770 C   0  0  0  0  0  0  0  0  0  0  0  0
   -0.6613    0.3058   -0.8710 C   0  0  0  0  0  0  0  0  0  0  0  0
   -1.7942    0.0422   -0.0840 C   0  0  0  0  0  0  0  0  0  0  0  0
   -3.1829    0.2816   -0.6486 C   0  0  0  0  0  0  0  0  0  0  0  0
   -3.9978   -1.0111   -0.7299 C   0  0  0  0  0  0  0  0  0  0  0  0
   -3.9386    1.3327    0.1432 C   0  0  0  0  0  0  0  0  0  0  0  0
   -4.6978    1.1437    1.0806 O   0  0  0  0  0  0  0  0  0  0  0  0
   -3.6827    2.5890   -0.2794 O   0  0  0  0  0  0  0  0  0  0  0  0
   -1.6085   -0.4366    1.2194 C   0  0  0  0  0  0  0  0  0  0  0  0
   -0.3230   -0.6507    1.7224 C   0  0  0  0  0  0  0  0  0  0  0  0
    0.8089   -0.3905    0.9362 C   0  0  0  0  0  0  0  0  0  0  0  0
    2.1083   -0.6006    1.4272 C   0  0  0  0  0  0  0  0  0  0  0  0
    6.4682   -0.5887    1.1207 H   0  0  0  0  0  0  0  0  0  0  0  0
    5.6852    0.7200    0.2268 H   0  0  0  0  0  0  0  0  0  0  0  0
    5.6464   -0.9761   -0.3957 H   0  0  0  0  0  0  0  0  0  0  0  0
    3.9036    0.3595   -1.3034 H   0  0  0  0  0  0  0  0  0  0  0  0
    1.6640    0.7314   -2.1751 H   0  0  0  0  0  0  0  0  0  0  0  0
   -0.7901    0.6834   -1.8841 H   0  0  0  0  0  0  0  0  0  0  0  0
   -3.1017    0.6592   -1.6772 H   0  0  0  0  0  0  0  0  0  0  0  0
   -4.1782   -1.4485    0.2585 H   0  0  0  0  0  0  0  0  0  0  0  0
   -3.4820   -1.7618   -1.3387 H   0  0  0  0  0  0  0  0  0  0  0  0
   -4.9772   -0.8209   -1.1832 H   0  0  0  0  0  0  0  0  0  0  0  0
   -4.1911    3.1547    0.3387 H   0  0  0  0  0  0  0  0  0  0  0  0
   -2.4633   -0.6448    1.8611 H   0  0  0  0  0  0  0  0  0  0  0  0
   -0.2119   -1.0228    2.7387 H   0  0  0  0  0  0  0  0  0  0  0  0
    2.2548   -0.9744    2.4384 H   0  0  0  0  0  0  0  0  0  0  0  0
  1  2  1  0
  2  3  1  0
  3  4  2  0
  4  5  1  0
  5  6  2  0
  6  7  1  0
  7  8  2  0
  8  9  1  0
  9 10  1  0
  9 11  1  0
 11 12  2  0
 11 13  1  0
  8 14  1  0
 14 15  2  0
 15 16  1  0
 16 17  2  0
 17  3  1  0
 16  6  1  0
  1 18  1  0
  1 19  1  0
  1 20  1  0
  4 21  1  0
  5 22  1  0
  7 23  1  0
  9 24  1  0
 10 25  1  0
 10 26  1  0
 10 27  1  0
 13 28  1  0
 14 29  1  0
 15 30  1  0
 17 31  1  0
M  END
$$$$
decoy_metronidazole
     RDKit          3D

 21 21  0  0  0  0  0  0  0  0999 V2000
   -0.3635    2.5254   -0.5584 C   0  0  0  0  0  0  0  0  0  0  0  0
   -0.9474    1.2654   -0.0274 C   0  0  0  0  0  0  0  0  0  0  0  0
   -2.0218    1.1970    0.7363 N   0  0  0  0  0  0  0  0  0  0  0  0
   -2.2113   -0.1324    1.0073 C   0  0  0  0  0  0  0  0  0  0  0  0
   -1.2519   -0.8820    0.3796 C   0  0  0  0  0  0  0  0  0  0  0  0
   -1.1093   -2.2939    0.3935 N   0  0  0  0  0  4  0  0  0  0  0  0
   -0.6958   -2.8360   -0.6377 O   0  0  0  0  0  0  0  0  0  0  0  0
   -1.4765   -2.8734    1.4226 O   0  0  0  0  0  1  0  0  0  0  0  0
   -0.4213    0.0028   -0.2585 N   0  0  0  0  0  0  0  0  0  0  0  0
    0.8216   -0.2662   -0.9653 C   0  0  0  0  0  0  0  0  0  0  0  0
    2.0183   -0.3284   -0.0198 C   0  0  0  0  0  0  0  0  0  0  0  0
    1.9271   -1.4758    0.8148 O   0  0  0  0  0  0  0  0  0  0  0  0
   -0.4048    2.5394   -1.6517 H   0  0  0  0  0  0  0  0  0  0  0  0
   -0.9239    3.3904   -0.1896 H   0  0  0  0  0  0  0  0  0  0  0  0
    0.6769    2.6392   -0.2399 H   0  0  0  0  0  0  0  0  0  0  0  0
   -3.0310   -0.4733    1.6272 H   0  0  0  0  0  0  0  0  0  0  0  0
    0.7112   -1.1927   -1.5316 H   0  0  0  0  0  0  0  0  0  0  0  0
    0.9679    0.5321   -1.7001 H   0  0  0  0  0  0  0  0  0  0  0  0
    2.9438   -0.4035   -0.5992 H   0  0  0  0  0  0  0  0  0  0  0  0
    2.0725    0.5606    0.6168 H   0  0  0  0  0  0  0  0  0  0  0  0
    2.7194   -1.4947    1.3811 H   0  0  0  0  0  0  0  0  0  0  0  0
  1  2  1  0
  2  3  2  0
  3  4  1  0
  4  5  2  0
  5  6  1  0
  6  7  2  0
  6  8  1  0
  5  9  1  0
  9 10  1  0
 10 11  1  0
 11 12  1  0
  9  2  1  0
  1 13  1  0
  1 14  1  0
  1 15  1  0
  4 16  1  0
 10 17  1  0
 10 18  1  0
 11 19  1  0
 11 20  1  0
 12 21  1  0
M  CHG  2   6   1   8  -1
M  END
$$$$
decoy_metoprolol
     RDKit          3D

 44 44  0  0  0  0  0  0  0  0999 V2000
    6.4510    0.2484   -2.3902 C   0  0  0  0  0  0  0  0  0  0  0  0
    5.9953    0.4699   -1.0625 O   0  0  0  0  0  0  0  0  0  0  0  0
    5.8757   -0.7553   -0.3345 C   0  0  0  0  0  0  0  0  0  0  0  0
    5.3226   -0.4759    1.0646 C   0  0  0  0  0  0  0  0  0  0  0  0
    3.8266   -0.2557    1.0700 C   0  0  0  0  0  0  0  0  0  0  0  0
    2.9571   -1.2578    1.5187 C   0  0  0  0  0  0  0  0  0  0  0  0
    1.5717   -1.0556    1.5185 C   0  0  0  0  0  0  0  0  0  0  0  0
    1.0386    0.1507    1.0657 C   0  0  0  0  0  0  0  0  0  0  0  0
   -0.2884    0.4762    1.0142 O   0  0  0  0  0  0  0  0  0  0  0  0
   -1.2237   -0.5437    1.3798 C   0  0  0  0  0  0  0  0  0  0  0  0
   -2.6461    0.0075    1.2065 C   0  0  0  0  0  0  0  0  0  0  0  0
   -2.8364    1.1299    2.0843 O   0  0  0  0  0  0  0  0  0  0  0  0
   -2.9265    0.4502   -0.2466 C   0  0  0  0  0  0  0  0  0  0  0  0
   -4.2634    1.0495   -0.4091 N   0  0  0  0  0  0  0  0  0  0  0  0
   -5.3520    0.0691   -0.5056 C   0  0  0  0  0  0  0  0  0  0  0  0
   -6.6782    0.7914   -0.2496 C   0  0  0  0  0  0  0  0  0  0  0  0
   -5.3878   -0.5877   -1.8867 C   0  0  0  0  0  0  0  0  0  0  0  0
    1.9024    1.1514    0.6176 C   0  0  0  0  0  0  0  0  0  0  0  0
    3.2847    0.9521    0.6175 C   0  0  0  0  0  0  0  0  0  0  0  0
    6.5334    1.2162   -2.8919 H   0  0  0  0  0  0  0  0  0  0  0  0
    5.7369   -0.3709   -2.9415 H   0  0  0  0  0  0  0  0  0  0  0  0
    7.4364   -0.2272   -2.3831 H   0  0  0  0  0  0  0  0  0  0  0  0
    6.8760   -1.1939   -0.2402 H   0  0  0  0  0  0  0  0  0  0  0  0
    5.2329   -1.4567   -0.8798 H   0  0  0  0  0  0  0  0  0  0  0  0
    5.5586   -1.3257    1.7168 H   0  0  0  0  0  0  0  0  0  0  0  0
    5.8096    0.4042    1.5027 H   0  0  0  0  0  0  0  0  0  0  0  0
    3.3509   -2.2065    1.8767 H   0  0  0  0  0  0  0  0  0  0  0  0
    0.9424   -1.8600    1.8831 H   0  0  0  0  0  0  0  0  0  0  0  0
   -1.0942   -1.4273    0.7436 H   0  0  0  0  0  0  0  0  0  0  0  0
   -1.0736   -0.8057    2.4340 H   0  0  0  0  0  0  0  0  0  0  0  0
   -3.3591   -0.7643    1.5139 H   0  0  0  0  0  0  0  0  0  0  0  0
   -2.0932    1.7380    1.9051 H   0  0  0  0  0  0  0  0  0  0  0  0
   -2.2157    1.2387   -0.5210 H   0  0  0  0  0  0  0  0  0  0  0  0
   -2.7600   -0.3759   -0.9449 H   0  0  0  0  0  0  0  0  0  0  0  0
   -4.4179    1.6366    0.4174 H   0  0  0  0  0  0  0  0  0  0  0  0
   -5.2475   -0.7067    0.2610 H   0  0  0  0  0  0  0  0  0  0  0  0
   -7.5178    0.0900   -0.3067 H   0  0  0  0  0  0  0  0  0  0  0  0
   -6.6943    1.2431    0.7487 H   0  0  0  0  0  0  0  0  0  0  0  0
   -6.8533    1.5856   -0.9843 H   0  0  0  0  0  0  0  0  0  0  0  0
   -6.2495   -1.2592   -1.9711 H   0  0  0  0  0  0  0  0  0  0  0  0
   -4.4920   -1.1870   -2.0755 H   0  0  0  0  0  0  0  0  0  0  0  0
   -5.4694    0.1602   -2.6835 H   0  0  0  0  0  0  0  0  0  0  0  0
    1.4991    2.0958    0.2609 H   0  0  0  0  0  0  0  0  0  0  0  0
    3.9382    1.7440    0.2562 H   0  0  0  0  0  0  0  0  0  0  0  0
  1  2  1  0
  2  3  1  0
  3  4  1  0
  4  5  1  0
  5  6  2  0
  6  7  1  0
  7  8  2  0
  8  9  1  0
  9 10  1  0
 10 11  1  0
 11 12  1  0
 11 13  1  0
 13 14  1  0
 14 15  1  0
 15 16  1  0
 15 17  1  0
  8 18  1  0
 18 19  2  0
 19  5  1  0
  1 20  1  0
  1 21  1  0
  1 22  1  0
  3 23  1  0
  3 24  1  0
  4 25  1  0
  4 26  1  0
  6 27  1  0
  7 28  1  0
 10 29  1  0
 10 30  1  0
 11 31  1  0
 12 32  1  0
 13 33  1  0
 13 34  1  0
 14 35  1  0
 15 36  1  0
 16 37  1  0
 16 38  1  0
 16 39  1  0
 17 40  1  0
 17 41  1  0
 17 42  1  0
 18 43  1  0
 19 44  1  0
M  END
$$$$
decoy_loratadine
     RDKit          3D

 50 53  0  0  0  0  0  0  0  0999 V2000
    6.4380    2.4877   -0.0765 C   0  0  0  0  0  0  0  0  0  0  0  0
    6.0476    1.1011    0.3969 C   0  0  0  0  0  0  0  0  0  0  0  0
    4.6805    0.8754    0.0364 O   0  0  0  0  0  0  0  0  0  0  0  0
    4.1954   -0.3423    0.4059 C   0  0  0  0  0  0  0  0  0  0  0  0
    4.8566   -1.1837    1.0027 O   0  0  0  0  0  0  0  0  0  0  0  0
    2.8759   -0.5118    0.0370 N   0  0  0  0  0  0  0  0  0  0  0  0
    2.1707   -1.7332    0.4005 C   0  0  0  0  0  0  0  0  0  0  0  0
    0.7073   -1.4613    0.7703 C   0  0  0  0  0  0  0  0  0  0  0  0
   -0.0666   -0.7287   -0.3238 C   0  0  0  0  0  0  0  0  0  0  0  0
   -1.4273   -0.6513   -0.3595 C   0  0  0  0  0  0  0  0  0  0  0  0
   -2.2247   -1.2426    0.7425 C   0  0  0  0  0  0  0  0  0  0  0  0
   -2.4151   -2.6267    0.8454 C   0  0  0  0  0  0  0  0  0  0  0  0
   -3.1775   -3.1548    1.8883 C   0  0  0  0  0  0  0  0  0  0  0  0
   -3.7623   -2.2982    2.8186 C   0  0  0  0  0  0  0  0  0  0  0  0
   -4.7040   -2.9495    4.1033 Cl  0  0  0  0  0  0  0  0  0  0  0  0
   -3.6042   -0.9163    2.7100 C   0  0  0  0  0  0  0  0  0  0  0  0
   -2.8415   -0.3781    1.6641 C   0  0  0  0  0  0  0  0  0  0  0  0
   -2.7121    1.1144    1.4824 C   0  0  0  0  0  0  0  0  0  0  0  0
   -3.4703    1.6077    0.2426 C   0  0  0  0  0  0  0  0  0  0  0  0
   -3.0453    1.1421   -1.1362 C   0  0  0  0  0  0  0  0  0  0  0  0
   -3.6598    1.7703   -2.2344 C   0  0  0  0  0  0  0  0  0  0  0  0
   -3.3567    1.3836   -3.5344 C   0  0  0  0  0  0  0  0  0  0  0  0
   -2.4433    0.3653   -3.7102 C   0  0  0  0  0  0  0  0  0  0  0  0
   -1.8285   -0.2689   -2.6923 N   0  0  0  0  0  0  0  0  0  0  0  0
   -2.1263    0.1221   -1.4224 C   0  0  0  0  0  0  0  0  0  0  0  0
    0.8435   -0.0397   -1.3374 C   0  0  0  0  0  0  0  0  0  0  0  0
    2.1286    0.5027   -0.7004 C   0  0  0  0  0  0  0  0  0  0  0  0
    7.4808    2.7053    0.1708 H   0  0  0  0  0  0  0  0  0  0  0  0
    5.7988    3.2469    0.3865 H   0  0  0  0  0  0  0  0  0  0  0  0
    6.3047    2.5772   -1.1597 H   0  0  0  0  0  0  0  0  0  0  0  0
    6.1598    1.0375    1.4850 H   0  0  0  0  0  0  0  0  0  0  0  0
    6.6861    0.3530   -0.0859 H   0  0  0  0  0  0  0  0  0  0  0  0
    2.6757   -2.2297    1.2362 H   0  0  0  0  0  0  0  0  0  0  0  0
    2.2283   -2.4090   -0.4616 H   0  0  0  0  0  0  0  0  0  0  0  0
    0.2492   -2.4262    1.0047 H   0  0  0  0  0  0  0  0  0  0  0  0
    0.6841   -0.8445    1.6780 H   0  0  0  0  0  0  0  0  0  0  0  0
   -1.9703   -3.2954    0.1115 H   0  0  0  0  0  0  0  0  0  0  0  0
   -3.3139   -4.2300    1.9653 H   0  0  0  0  0  0  0  0  0  0  0  0
   -4.0847   -0.2612    3.4323 H   0  0  0  0  0  0  0  0  0  0  0  0
   -1.6530    1.3974    1.4362 H   0  0  0  0  0  0  0  0  0  0  0  0
   -3.1165    1.6261    2.3651 H   0  0  0  0  0  0  0  0  0  0  0  0
   -3.4079    2.7045    0.2501 H   0  0  0  0  0  0  0  0  0  0  0  0
   -4.5320    1.3495    0.3598 H   0  0  0  0  0  0  0  0  0  0  0  0
   -4.3878    2.5633   -2.0753 H   0  0  0  0  0  0  0  0  0  0  0  0
   -3.8277    1.8607   -4.3862 H   0  0  0  0  0  0  0  0  0  0  0  0
   -2.1730    0.0179   -4.7030 H   0  0  0  0  0  0  0  0  0  0  0  0
    0.3516    0.8048   -1.8296 H   0  0  0  0  0  0  0  0  0  0  0  0
    1.1062   -0.7690   -2.1142 H   0  0  0  0  0  0  0  0  0  0  0  0
    1.8914    1.3060    0.0081 H   0  0  0  0  0  0  0  0  0  0  0  0
    2.7713    0.9299   -1.4784 H   0  0  0  0  0  0  0  0  0  0  0  0
  1  2  1  0
  2  3  1  0
  3  4  1  0
  4  5  2  0
  4  6  1  0
  6  7  1  0
  7  8  1  0
  8  9  1  0
  9 10  2  3
 10 11  1  0
 11 12  2  0
 12 13  1  0
 13 14  2  0
 14 15  1  0
 14 16  1  0
 16 17  2  0
 17 18  1  0
 18 19  1  0
 19 20  1  0
 20 21  2  0
 21 22  1  0
 22 23  2  0
 23 24  1  0
 24 25  2  0
  9 26  1  0
 26 27  1  0
 27  6  1  0
 25 10  1  0
 17 11  1  0
 25 20  1  0
  1 28  1  0
  1 29  1  0
  1 30  1  0
  2 31  1  0
  2 32  1  0
  7 33  1  0
  7 34  1  0
  8 35  1  0
  8 36  1  0
 12 37  1  0
 13 38  1  0
 16 39  1  0
 18 40  1  0
 18 41  1  0
 19 42  1  0
 19 43  1  0
 21 44  1  0
 22 45  1  0
 23 46  1  0
 26 47  1  0
 26 48  1  0
 27 49  1  0
 27 50  1  0
M  END
$$$$
decoy_lidocaine
     RDKit          3D

 39 39  0  0  0  0  0  0  0  0999 V2000
    3.1414   -1.1789   -0.8388 C   0  0  0  0  0  0  0  0  0  0  0  0
    2.4322    0.1673   -0.7334 C   0  0  0  0  0  0  0  0  0  0  0  0
    1.8661    0.4281    0.6058 N   0  0  0  0  0  0  0  0  0  0  0  0
    2.8721    0.4568    1.6826 C   0  0  0  0  0  0  0  0  0  0  0  0
    3.9796    1.4994    1.5574 C   0  0  0  0  0  0  0  0  0  0  0  0
    1.0767    1.6934    0.5902 C   0  0  0  0  0  0  0  0  0  0  0  0
   -0.2862    1.4822   -0.0872 C   0  0  0  0  0  0  0  0  0  0  0  0
   -0.7884    2.3560   -0.7854 O   0  0  0  0  0  0  0  0  0  0  0  0
   -0.8129    0.2353    0.2104 N   0  0  0  0  0  0  0  0  0  0  0  0
   -2.0287   -0.3174   -0.2509 C   0  0  0  0  0  0  0  0  0  0  0  0
   -2.0323   -1.6998   -0.5684 C   0  0  0  0  0  0  0  0  0  0  0  0
   -0.8006   -2.5590   -0.4419 C   0  0  0  0  0  0  0  0  0  0  0  0
   -3.2027   -2.3009   -1.0609 C   0  0  0  0  0  0  0  0  0  0  0  0
   -4.3640   -1.5584   -1.2288 C   0  0  0  0  0  0  0  0  0  0  0  0
   -4.3771   -0.2141   -0.8753 C   0  0  0  0  0  0  0  0  0  0  0  0
   -3.2302    0.4161   -0.3540 C   0  0  0  0  0  0  0  0  0  0  0  0
   -3.4027    1.8391    0.1044 C   0  0  0  0  0  0  0  0  0  0  0  0
    2.5006   -1.9937   -0.4863 H   0  0  0  0  0  0  0  0  0  0  0  0
    4.0726   -1.1948   -0.2648 H   0  0  0  0  0  0  0  0  0  0  0  0
    3.3981   -1.3833   -1.8836 H   0  0  0  0  0  0  0  0  0  0  0  0
    3.1152    0.9664   -1.0450 H   0  0  0  0  0  0  0  0  0  0  0  0
    1.6193    0.1519   -1.4697 H   0  0  0  0  0  0  0  0  0  0  0  0
    2.3543    0.6132    2.6380 H   0  0  0  0  0  0  0  0  0  0  0  0
    3.3277   -0.5352    1.7818 H   0  0  0  0  0  0  0  0  0  0  0  0
    4.6352    1.4471    2.4332 H   0  0  0  0  0  0  0  0  0  0  0  0
    4.6014    1.3279    0.6739 H   0  0  0  0  0  0  0  0  0  0  0  0
    3.5773    2.5157    1.5089 H   0  0  0  0  0  0  0  0  0  0  0  0
    1.6148    2.4990    0.0777 H   0  0  0  0  0  0  0  0  0  0  0  0
    0.8513    2.0244    1.6117 H   0  0  0  0  0  0  0  0  0  0  0  0
   -0.0751   -0.4074    0.4875 H   0  0  0  0  0  0  0  0  0  0  0  0
   -0.0065   -2.1789   -1.0921 H   0  0  0  0  0  0  0  0  0  0  0  0
   -0.9972   -3.5951   -0.7381 H   0  0  0  0  0  0  0  0  0  0  0  0
   -0.4534   -2.5796    0.5961 H   0  0  0  0  0  0  0  0  0  0  0  0
   -3.2115   -3.3553   -1.3282 H   0  0  0  0  0  0  0  0  0  0  0  0
   -5.2625   -2.0280   -1.6197 H   0  0  0  0  0  0  0  0  0  0  0  0
   -5.3030    0.3474   -0.9859 H   0  0  0  0  0  0  0  0  0  0  0  0
   -2.7336    2.0838    0.9342 H   0  0  0  0  0  0  0  0  0  0  0  0
   -4.4177    1.9972    0.4884 H   0  0  0  0  0  0  0  0  0  0  0  0
   -3.2495    2.5321   -0.7274 H   0  0  0  0  0  0  0  0  0  0  0  0
  1  2  1  0
  2  3  1  0
  3  4  1  0
  4  5  1  0
  3  6  1  0
  6  7  1  0
  7  8  2  0
  7  9  1  0
  9 10  1  0
 10 11  2  0
 11 12  1  0
 11 13  1  0
 13 14  2  0
 14 15  1  0
 15 16  2  0
 16 17  1  0
 16 10  1  0
  1 18  1  0
  1 19  1  0
  1 20  1  0
  2 21  1  0
  2 22  1  0
  4 23  1  0
  4 24  1  0
  5 25  1  0
  5 26  1  0
  5 27  1  0
  6 28  1  0
  6 29  1  0
  9 30  1  0
 12 31  1  0
 12 32  1  0
 12 33  1  0
 13 34  1  0
 14 35  1  0
 15 36  1  0
 17 37  1  0
 17 38  1  0
 17 39  1  0
M  END
$$$$
decoy_ketoprofen
     RDKit          3D

 33 34  0  0  0  0  0  0  0  0999 V2000
   -3.8046    1.8871    0.4569 C   0  0  0  0  0  0  0  0  0  0  0  0
   -3.3489    0.7239   -0.4246 C   0  0  0  0  0  0  0  0  0  0  0  0
   -4.4860   -0.2735   -0.5744 C   0  0  0  0  0  0  0  0  0  0  0  0
   -4.6611   -1.3151    0.0359 O   0  0  0  0  0  0  0  0  0  0  0  0
   -5.3984    0.1265   -1.4879 O   0  0  0  0  0  0  0  0  0  0  0  0
   -2.0596    0.1010    0.0919 C   0  0  0  0  0  0  0  0  0  0  0  0
   -1.9803   -0.4930    1.3612 C   0  0  0  0  0  0  0  0  0  0  0  0
   -0.7891   -1.0673    1.8105 C   0  0  0  0  0  0  0  0  0  0  0  0
    0.3479   -1.0468    1.0037 C   0  0  0  0  0  0  0  0  0  0  0  0
    0.2959   -0.4381   -0.2538 C   0  0  0  0  0  0  0  0  0  0  0  0
    1.4773   -0.4014   -1.1537 C   0  0  0  0  0  0  0  0  0  0  0  0
    1.3087   -0.4749   -2.3685 O   0  0  0  0  0  0  0  0  0  0  0  0
    2.8574   -0.2751   -0.6215 C   0  0  0  0  0  0  0  0  0  0  0  0
    3.8932   -0.9372   -1.2908 C   0  0  0  0  0  0  0  0  0  0  0  0
    5.2050   -0.8321   -0.8265 C   0  0  0  0  0  0  0  0  0  0  0  0
    5.4863   -0.0560    0.2977 C   0  0  0  0  0  0  0  0  0  0  0  0
    4.4599    0.6235    0.9545 C   0  0  0  0  0  0  0  0  0  0  0  0
    3.1456    0.5211    0.4937 C   0  0  0  0  0  0  0  0  0  0  0  0
   -0.9073    0.1168   -0.7117 C   0  0  0  0  0  0  0  0  0  0  0  0
   -3.0093    2.6322    0.5695 H   0  0  0  0  0  0  0  0  0  0  0  0
   -4.0957    1.5497    1.4581 H   0  0  0  0  0  0  0  0  0  0  0  0
   -4.6760    2.3876    0.0204 H   0  0  0  0  0  0  0  0  0  0  0  0
   -3.1491    1.1182   -1.4305 H   0  0  0  0  0  0  0  0  0  0  0  0
   -6.0626   -0.5949   -1.4856 H   0  0  0  0  0  0  0  0  0  0  0  0
   -2.8580   -0.5386    2.0044 H   0  0  0  0  0  0  0  0  0  0  0  0
   -0.7553   -1.5454    2.7867 H   0  0  0  0  0  0  0  0  0  0  0  0
    1.2555   -1.5264    1.3604 H   0  0  0  0  0  0  0  0  0  0  0  0
    3.6786   -1.5345   -2.1748 H   0  0  0  0  0  0  0  0  0  0  0  0
    6.0072   -1.3503   -1.3461 H   0  0  0  0  0  0  0  0  0  0  0  0
    6.5097    0.0286    0.6555 H   0  0  0  0  0  0  0  0  0  0  0  0
    4.6861    1.2412    1.8203 H   0  0  0  0  0  0  0  0  0  0  0  0
    2.3638    1.0800    1.0015 H   0  0  0  0  0  0  0  0  0  0  0  0
   -0.9367    0.5633   -1.7051 H   0  0  0  0  0  0  0  0  0  0  0  0
  1  2  1  0
  2  3  1  0
  3  4  2  0
  3  5  1  0
  2  6  1  0
  6  7  2  0
  7  8  1  0
  8  9  2  0
  9 10  1  0
 10 11  1  0
 11 12  2  0
 11 13  1  0
 13 14  2  0
 14 15  1  0
 15 16  2  0
 16 17  1  0
 17 18  2  0
 10 19  2  0
 19  6  1  0
 18 13  1  0
  1 20  1  0
  1 21  1  0
  1 22  1  0
  2 23  1  0
  5 24  1  0
  7 25  1  0
  8 26  1  0
  9 27  1  0
 14 28  1  0
 15 29  1  0
 16 30  1  0
 17 31  1  0
 18 32  1  0
 19 33  1  0
M  END
$$$$
decoy_indomethacin
     RDKit          3D

 41 43  0  0  0  0  0  0  0  0999 V2000
   -3.8282    2.6026    2.0854 C   0  0  0  0  0  0  0  0  0  0  0  0
   -2.4416    2.4962    2.3832 O   0  0  0  0  0  0  0  0  0  0  0  0
   -1.7072    1.6366    1.6126 C   0  0  0  0  0  0  0  0  0  0  0  0
   -0.3620    1.5575    1.9523 C   0  0  0  0  0  0  0  0  0  0  0  0
    0.5204    0.7242    1.2565 C   0  0  0  0  0  0  0  0  0  0  0  0
    0.0314   -0.0308    0.1722 C   0  0  0  0  0  0  0  0  0  0  0  0
   -1.3270   -0.0035   -0.1526 C   0  0  0  0  0  0  0  0  0  0  0  0
   -2.1970    0.8524    0.5667 C   0  0  0  0  0  0  0  0  0  0  0  0
   -1.5461   -0.9504   -1.1950 C   0  0  0  0  0  0  0  0  0  0  0  0
   -2.8685   -1.2546   -1.8290 C   0  0  0  0  0  0  0  0  0  0  0  0
   -3.6401   -2.2859   -1.0471 C   0  0  0  0  0  0  0  0  0  0  0  0
   -3.4810   -3.4958   -1.0798 O   0  0  0  0  0  0  0  0  0  0  0  0
   -4.5787   -1.7462   -0.2401 O   0  0  0  0  0  0  0  0  0  0  0  0
   -0.3233   -1.5444   -1.4719 C   0  0  0  0  0  0  0  0  0  0  0  0
   -0.0186   -2.6417   -2.4418 C   0  0  0  0  0  0  0  0  0  0  0  0
    0.6676   -0.9118   -0.7128 N   0  0  0  0  0  0  0  0  0  0  0  0
    2.0679   -1.1329   -0.8223 C   0  0  0  0  0  0  0  0  0  0  0  0
    2.4550   -2.1955   -1.3071 O   0  0  0  0  0  0  0  0  0  0  0  0
    3.1180   -0.1632   -0.4348 C   0  0  0  0  0  0  0  0  0  0  0  0
    3.0213    1.1837   -0.8081 C   0  0  0  0  0  0  0  0  0  0  0  0
    4.0390    2.0746   -0.4573 C   0  0  0  0  0  0  0  0  0  0  0  0
    5.1533    1.6152    0.2458 C   0  0  0  0  0  0  0  0  0  0  0  0
    6.4032    2.7157    0.6758 Cl  0  0  0  0  0  0  0  0  0  0  0  0
    5.2653    0.2696    0.5960 C   0  0  0  0  0  0  0  0  0  0  0  0
    4.2501   -0.6245    0.2482 C   0  0  0  0  0  0  0  0  0  0  0  0
   -3.9864    2.9792    1.0694 H   0  0  0  0  0  0  0  0  0  0  0  0
   -4.3389    1.6460    2.2376 H   0  0  0  0  0  0  0  0  0  0  0  0
   -4.2645    3.3267    2.7802 H   0  0  0  0  0  0  0  0  0  0  0  0
    0.0132    2.1499    2.7847 H   0  0  0  0  0  0  0  0  0  0  0  0
    1.5536    0.6716    1.5832 H   0  0  0  0  0  0  0  0  0  0  0  0
   -3.2471    0.8603    0.2978 H   0  0  0  0  0  0  0  0  0  0  0  0
   -2.7513   -1.6224   -2.8540 H   0  0  0  0  0  0  0  0  0  0  0  0
   -3.4726   -0.3436   -1.9174 H   0  0  0  0  0  0  0  0  0  0  0  0
   -4.9540   -2.5240    0.2247 H   0  0  0  0  0  0  0  0  0  0  0  0
    0.3913   -3.5137   -1.9227 H   0  0  0  0  0  0  0  0  0  0  0  0
    0.6904   -2.3031   -3.2038 H   0  0  0  0  0  0  0  0  0  0  0  0
   -0.9190   -2.9776   -2.9644 H   0  0  0  0  0  0  0  0  0  0  0  0
    2.1660    1.5492   -1.3722 H   0  0  0  0  0  0  0  0  0  0  0  0
    3.9606    3.1218   -0.7395 H   0  0  0  0  0  0  0  0  0  0  0  0
    6.1407   -0.0898    1.1311 H   0  0  0  0  0  0  0  0  0  0  0  0
    4.3446   -1.6778    0.5063 H   0  0  0  0  0  0  0  0  0  0  0  0
  1  2  1  0
  2  3  1  0
  3  4  2  0
  4  5  1  0
  5  6  2  0
  6  7  1  0
  7  8  2  0
  7  9  1  0
  9 10  1  0
 10 11  1  0
 11 12  2  0
 11 13  1  0
  9 14  2  0
 14 15  1  0
 14 16  1  0
 16 17  1  0
 17 18  2  0
 17 19  1  0
 19 20  2  0
 20 21  1  0
 21 22  2  0
 22 23  1  0
 22 24  1  0
 24 25  2  0
  8  3  1  0
 25 19  1  0
 16  6  1  0
  1 26  1  0
  1 27  1  0
  1 28  1  0
  4 29  1  0
  5 30  1  0
  8 31  1  0
 10 32  1  0
 10 33  1  0
 13 34  1  0
 15 35  1  0
 15 36  1  0
 15 37  1  0
 20 38  1  0
 21 39  1  0
 24 40  1  0
 25 41  1  0
M  END
$$$$
decoy_ibuprofen
     RDKit          3D

 33 33  0  0  0  0  0  0  0  0999 V2000
   -3.4598    1.4826   -0.1105 C   0  0  0  0  0  0  0  0  0  0  0  0
   -3.4969   -0.0431   -0.2080 C   0  0  0  0  0  0  0  0  0  0  0  0
   -3.4114   -0.6699    1.1842 C   0  0  0  0  0  0  0  0  0  0  0  0
   -2.4458   -0.6079   -1.1863 C   0  0  0  0  0  0  0  0  0  0  0  0
   -0.9994   -0.3610   -0.8304 C   0  0  0  0  0  0  0  0  0  0  0  0
   -0.3368    0.7838   -1.2872 C   0  0  0  0  0  0  0  0  0  0  0  0
    1.0024    1.0116   -0.9584 C   0  0  0  0  0  0  0  0  0  0  0  0
    1.7130    0.0984   -0.1655 C   0  0  0  0  0  0  0  0  0  0  0  0
    3.1655    0.3751    0.1902 C   0  0  0  0  0  0  0  0  0  0  0  0
    3.3695    0.4907    1.7011 C   0  0  0  0  0  0  0  0  0  0  0  0
    4.1314   -0.6555   -0.3694 C   0  0  0  0  0  0  0  0  0  0  0  0
    3.9390   -1.8442   -0.5648 O   0  0  0  0  0  0  0  0  0  0  0  0
    5.3520   -0.1291   -0.6172 O   0  0  0  0  0  0  0  0  0  0  0  0
    1.0471   -1.0500    0.2855 C   0  0  0  0  0  0  0  0  0  0  0  0
   -0.2915   -1.2777   -0.0451 C   0  0  0  0  0  0  0  0  0  0  0  0
   -2.5482    1.8375    0.3806 H   0  0  0  0  0  0  0  0  0  0  0  0
   -3.5169    1.9390   -1.1042 H   0  0  0  0  0  0  0  0  0  0  0  0
   -4.3115    1.8495    0.4726 H   0  0  0  0  0  0  0  0  0  0  0  0
   -4.4787   -0.3131   -0.6202 H   0  0  0  0  0  0  0  0  0  0  0  0
   -2.4987   -0.3720    1.7099 H   0  0  0  0  0  0  0  0  0  0  0  0
   -4.2622   -0.3549    1.7985 H   0  0  0  0  0  0  0  0  0  0  0  0
   -3.4335   -1.7628    1.1226 H   0  0  0  0  0  0  0  0  0  0  0  0
   -2.6004   -1.6905   -1.2911 H   0  0  0  0  0  0  0  0  0  0  0  0
   -2.6341   -0.1990   -2.1884 H   0  0  0  0  0  0  0  0  0  0  0  0
   -0.8605    1.5100   -1.9050 H   0  0  0  0  0  0  0  0  0  0  0  0
    1.4835    1.9144   -1.3289 H   0  0  0  0  0  0  0  0  0  0  0  0
    3.4408    1.3383   -0.2611 H   0  0  0  0  0  0  0  0  0  0  0  0
    3.1843   -0.4610    2.2118 H   0  0  0  0  0  0  0  0  0  0  0  0
    2.6996    1.2420    2.1334 H   0  0  0  0  0  0  0  0  0  0  0  0
    4.3997    0.7840    1.9319 H   0  0  0  0  0  0  0  0  0  0  0  0
    5.8664   -0.8919   -0.9566 H   0  0  0  0  0  0  0  0  0  0  0  0
    1.5687   -1.7904    0.8891 H   0  0  0  0  0  0  0  0  0  0  0  0
   -0.7765   -2.1826    0.3144 H   0  0  0  0  0  0  0  0  0  0  0  0
  1  2  1  0
  2  3  1  0
  2  4  1  0
  4  5  1  0
  5  6  2  0
  6  7  1  0
  7  8  2  0
  8  9  1  0
  9 10  1  0
  9 11  1  0
 11 12  2  0
 11 13  1  0
  8 14  1  0
 14 15  2  0
 15  5  1  0
  1 16  1  0
  1 17  1  0
  1 18  1  0
  2 19  1  0
  3 20  1  0
  3 21  1  0
  3 22  1  0
  4 23  1  0
  4 24  1  0
  6 25  1  0
  7 26  1  0
  9 27  1  0
 10 28  1  0
 10 29  1  0
 10 30  1  0
 13 31  1  0
 14 32  1  0
 15 33  1  0
M  END
$$$$
decoy_hydrochlorothiazide
     RDKit          3D

 25 26  0  0  0  0  0  0  0  0999 V2000
    4.0417   -0.5433    0.8803 N   0  0  0  0  0  0  0  0  0  0  0  0
    3.3283   -0.5349   -0.6381 S   0  0  0  0  0  6  0  0  0  0  0  0
    3.2647   -1.9274   -1.0209 O   0  0  0  0  0  0  0  0  0  0  0  0
    4.0276    0.4396   -1.4389 O   0  0  0  0  0  0  0  0  0  0  0  0
    1.6921    0.0383   -0.3105 C   0  0  0  0  0  0  0  0  0  0  0  0
    0.6199   -0.8187   -0.5858 C   0  0  0  0  0  0  0  0  0  0  0  0
   -0.6868   -0.3771   -0.3538 C   0  0  0  0  0  0  0  0  0  0  0  0
   -0.9672    0.8840    0.1710 C   0  0  0  0  0  0  0  0  0  0  0  0
    0.1233    1.7266    0.4279 C   0  0  0  0  0  0  0  0  0  0  0  0
    1.4473    1.3162    0.1953 C   0  0  0  0  0  0  0  0  0  0  0  0
    2.6856    2.4568    0.5821 Cl  0  0  0  0  0  0  0  0  0  0  0  0
   -2.2542    1.3735    0.3746 N   0  0  0  0  0  0  0  0  0  0  0  0
   -3.4158    0.5937    0.0218 C   0  0  0  0  0  0  0  0  0  0  0  0
   -3.2182   -0.7971    0.3555 N   0  0  0  0  0  0  0  0  0  0  0  0
   -2.0238   -1.4833   -0.6068 S   0  0  0  0  0  6  0  0  0  0  0  0
   -1.6932   -2.7573   -0.0100 O   0  0  0  0  0  0  0  0  0  0  0  0
   -2.4543   -1.3746   -1.9821 O   0  0  0  0  0  0  0  0  0  0  0  0
    4.8039    0.1359    0.9095 H   0  0  0  0  0  0  0  0  0  0  0  0
    4.3261   -1.4930    1.1244 H   0  0  0  0  0  0  0  0  0  0  0  0
    0.7888   -1.8234   -0.9719 H   0  0  0  0  0  0  0  0  0  0  0  0
   -0.0611    2.7305    0.8081 H   0  0  0  0  0  0  0  0  0  0  0  0
   -2.3585    1.8950    1.2410 H   0  0  0  0  0  0  0  0  0  0  0  0
   -3.6724    0.7274   -1.0351 H   0  0  0  0  0  0  0  0  0  0  0  0
   -4.2772    0.9665    0.5872 H   0  0  0  0  0  0  0  0  0  0  0  0
   -4.0669   -1.3540    0.2759 H   0  0  0  0  0  0  0  0  0  0  0  0
  1  2  1  0
  2  3  2  0
  2  4  2  0
  2  5  1  0
  5  6  2  0
  6  7  1  0
  7  8  2  0
  8  9  1  0
  9 10  2  0
 10 11  1  0
  8 12  1  0
 12 13  1  0
 13 14  1  0
 14 15  1  0
 15 16  2  0
 15 17  2  0
 10  5  1  0
 15  7  1  0
  1 18  1  0
  1 19  1  0
  6 20  1  0
  9 21  1  0
 12 22  1  0
 13 23  1  0
 13 24  1  0
 14 25  1  0
M  END
$$$$
decoy_haloperidol
     RDKit          3D

 49 51  0  0  0  0  0  0  0  0999 V2000
    3.2263    2.5577    2.0354 O   0  0  0  0  0  0  0  0  0  0  0  0
    3.7383    1.7726    1.2375 C   0  0  0  0  0  0  0  0  0  0  0  0
    3.4945    1.9219   -0.2510 C   0  0  0  0  0  0  0  0  0  0  0  0
    2.2706    1.1338   -0.7133 C   0  0  0  0  0  0  0  0  0  0  0  0
    0.9589    1.7298   -0.1793 C   0  0  0  0  0  0  0  0  0  0  0  0
   -0.2265    1.0904   -0.7676 N   0  0  0  0  0  0  0  0  0  0  0  0
   -0.4494   -0.2791   -0.3152 C   0  0  0  0  0  0  0  0  0  0  0  0
   -1.5729   -0.9428   -1.1227 C   0  0  0  0  0  0  0  0  0  0  0  0
   -2.8448   -0.0717   -1.2435 C   0  0  0  0  0  0  0  0  0  0  0  0
   -2.9370    0.4088   -2.5988 O   0  0  0  0  0  0  0  0  0  0  0  0
   -4.1023   -0.9201   -1.0136 C   0  0  0  0  0  0  0  0  0  0  0  0
   -4.3848   -1.9766   -1.9055 C   0  0  0  0  0  0  0  0  0  0  0  0
   -5.5162   -2.7807   -1.7465 C   0  0  0  0  0  0  0  0  0  0  0  0
   -6.3871   -2.5404   -0.6902 C   0  0  0  0  0  0  0  0  0  0  0  0
   -7.7821   -3.5257   -0.4874 Cl  0  0  0  0  0  0  0  0  0  0  0  0
   -6.1347   -1.5038    0.2034 C   0  0  0  0  0  0  0  0  0  0  0  0
   -5.0008   -0.6986    0.0425 C   0  0  0  0  0  0  0  0  0  0  0  0
   -2.7239    1.1690   -0.3477 C   0  0  0  0  0  0  0  0  0  0  0  0
   -1.4192    1.9359   -0.5991 C   0  0  0  0  0  0  0  0  0  0  0  0
    4.5931    0.6581    1.7525 C   0  0  0  0  0  0  0  0  0  0  0  0
    5.0608   -0.3805    0.9350 C   0  0  0  0  0  0  0  0  0  0  0  0
    5.8540   -1.3970    1.4772 C   0  0  0  0  0  0  0  0  0  0  0  0
    6.1755   -1.3759    2.8294 C   0  0  0  0  0  0  0  0  0  0  0  0
    6.9348   -2.3523    3.3420 F   0  0  0  0  0  0  0  0  0  0  0  0
    5.7179   -0.3579    3.6554 C   0  0  0  0  0  0  0  0  0  0  0  0
    4.9253    0.6587    3.1178 C   0  0  0  0  0  0  0  0  0  0  0  0
    4.3859    1.6172   -0.8085 H   0  0  0  0  0  0  0  0  0  0  0  0
    3.3727    2.9904   -0.4675 H   0  0  0  0  0  0  0  0  0  0  0  0
    2.2492    1.1443   -1.8103 H   0  0  0  0  0  0  0  0  0  0  0  0
    2.3708    0.0890   -0.4023 H   0  0  0  0  0  0  0  0  0  0  0  0
    0.9559    2.7960   -0.4425 H   0  0  0  0  0  0  0  0  0  0  0  0
    0.9191    1.6678    0.9150 H   0  0  0  0  0  0  0  0  0  0  0  0
    0.4464   -0.8937   -0.4533 H   0  0  0  0  0  0  0  0  0  0  0  0
   -0.6823   -0.3060    0.7575 H   0  0  0  0  0  0  0  0  0  0  0  0
   -1.7927   -1.8968   -0.6257 H   0  0  0  0  0  0  0  0  0  0  0  0
   -1.1937   -1.1927   -2.1229 H   0  0  0  0  0  0  0  0  0  0  0  0
   -3.8653    0.6493   -2.7602 H   0  0  0  0  0  0  0  0  0  0  0  0
   -3.7129   -2.1742   -2.7409 H   0  0  0  0  0  0  0  0  0  0  0  0
   -5.7080   -3.5870   -2.4491 H   0  0  0  0  0  0  0  0  0  0  0  0
   -6.8154   -1.3143    1.0295 H   0  0  0  0  0  0  0  0  0  0  0  0
   -4.8450    0.0993    0.7637 H   0  0  0  0  0  0  0  0  0  0  0  0
   -3.5629    1.8555   -0.5206 H   0  0  0  0  0  0  0  0  0  0  0  0
   -2.7548    0.8814    0.7114 H   0  0  0  0  0  0  0  0  0  0  0  0
   -1.5249    2.5491   -1.5022 H   0  0  0  0  0  0  0  0  0  0  0  0
   -1.2961    2.6364    0.2378 H   0  0  0  0  0  0  0  0  0  0  0  0
    4.8191   -0.4325   -0.1222 H   0  0  0  0  0  0  0  0  0  0  0  0
    6.2210   -2.2068    0.8534 H   0  0  0  0  0  0  0  0  0  0  0  0
    5.9776   -0.3596    4.7094 H   0  0  0  0  0  0  0  0  0  0  0  0
    4.5679    1.4543    3.7700 H   0  0  0  0  0  0  0  0  0  0  0  0
  1  2  2  0
  2  3  1  0
  3  4  1  0
  4  5  1  0
  5  6  1  0
  6  7  1  0
  7  8  1  0
  8  9  1  0
  9 10  1  0
  9 11  1  0
 11 12  2  0
 12 13  1  0
 13 14  2  0
 14 15  1  0
 14 16  1  0
 16 17  2  0
  9 18  1  0
 18 19  1  0
  2 20  1  0
 20 21  2  0
 21 22  1  0
 22 23  2  0
 23 24  1  0
 23 25  1  0
 25 26  2  0
 19  6  1  0
 26 20  1  0
 17 11  1  0
  3 27  1  0
  3 28  1  0
  4 29  1  0
  4 30  1  0
  5 31  1  0
  5 32  1  0
  7 33  1  0
  7 34  1  0
  8 35  1  0
  8 36  1  0
 10 37  1  0
 12 38  1  0
 13 39  1  0
 16 40  1  0
 17 41  1  0
 18 42  1  0
 18 43  1  0
 19 44  1  0
 19 45  1  0
 21 46  1  0
 22 47  1  0
 25 48  1  0
 26 49  1  0
M  END
$$$$
decoy_furosemide
     RDKit          3D

 32 33  0  0  0  0  0  0  0  0999 V2000
    3.2939   -3.1374   -0.5646 N   0  0  0  0  0  0  0  0  0  0  0  0
    3.9049   -1.5882   -0.3461 S   0  0  0  0  0  6  0  0  0  0  0  0
    4.3333   -1.1871   -1.6678 O   0  0  0  0  0  0  0  0  0  0  0  0
    4.8062   -1.5940    0.7792 O   0  0  0  0  0  0  0  0  0  0  0  0
    2.4852   -0.6248    0.0849 C   0  0  0  0  0  0  0  0  0  0  0  0
    2.1582    0.4731   -0.7214 C   0  0  0  0  0  0  0  0  0  0  0  0
    1.0473    1.2845   -0.4219 C   0  0  0  0  0  0  0  0  0  0  0  0
    0.8105    2.4170   -1.3633 C   0  0  0  0  0  0  0  0  0  0  0  0
    1.5895    2.7920   -2.2214 O   0  0  0  0  0  0  0  0  0  0  0  0
   -0.3939    3.0042   -1.2343 O   0  0  0  0  0  0  0  0  0  0  0  0
    0.2346    0.9923    0.6987 C   0  0  0  0  0  0  0  0  0  0  0  0
   -0.8334    1.8276    1.0786 N   0  0  0  0  0  0  0  0  0  0  0  0
   -2.0529    1.2349    1.6395 C   0  0  0  0  0  0  0  0  0  0  0  0
   -2.7869    0.3055    0.7333 C   0  0  0  0  0  0  0  0  0  0  0  0
   -3.0605   -1.0463    0.7781 C   0  0  0  0  0  0  0  0  0  0  0  0
   -3.7979   -1.3427   -0.3937 C   0  0  0  0  0  0  0  0  0  0  0  0
   -3.9265   -0.1565   -1.0769 C   0  0  0  0  0  0  0  0  0  0  0  0
   -3.3168    0.8505   -0.4009 O   0  0  0  0  0  0  0  0  0  0  0  0
    0.6155   -0.0911    1.5127 C   0  0  0  0  0  0  0  0  0  0  0  0
    1.7166   -0.9055    1.2091 C   0  0  0  0  0  0  0  0  0  0  0  0
    2.0109   -2.2346    2.2701 Cl  0  0  0  0  0  0  0  0  0  0  0  0
    2.3815   -3.3038   -0.1455 H   0  0  0  0  0  0  0  0  0  0  0  0
    3.3500   -3.3968   -1.5502 H   0  0  0  0  0  0  0  0  0  0  0  0
    2.7734    0.7127   -1.5902 H   0  0  0  0  0  0  0  0  0  0  0  0
   -0.3864    3.6947   -1.9324 H   0  0  0  0  0  0  0  0  0  0  0  0
   -1.0926    2.4259    0.2820 H   0  0  0  0  0  0  0  0  0  0  0  0
   -1.8407    0.7455    2.5967 H   0  0  0  0  0  0  0  0  0  0  0  0
   -2.7292    2.0627    1.8875 H   0  0  0  0  0  0  0  0  0  0  0  0
   -2.7636   -1.7321    1.5593 H   0  0  0  0  0  0  0  0  0  0  0  0
   -4.1893   -2.3015   -0.7038 H   0  0  0  0  0  0  0  0  0  0  0  0
   -4.3984    0.1248   -2.0082 H   0  0  0  0  0  0  0  0  0  0  0  0
    0.0576   -0.3054    2.4211 H   0  0  0  0  0  0  0  0  0  0  0  0
  1  2  1  0
  2  3  2  0
  2  4  2  0
  2  5  1  0
  5  6  2  0
  6  7  1  0
  7  8  1  0
  8  9  2  0
  8 10  1  0
  7 11  2  0
 11 12  1  0
 12 13  1  0
 13 14  1  0
 14 15  2  0
 15 16  1  0
 16 17  2  0
 17 18  1  0
 11 19  1  0
 19 20  2  0
 20 21  1  0
 20  5  1  0
 18 14  1  0
  1 22  1  0
  1 23  1  0
  6 24  1  0
 10 25  1  0
 12 26  1  0
 13 27  1  0
 13 28  1  0
 15 29  1  0
 16 30  1  0
 17 31  1  0
 19 32  1  0
M  END
$$$$
decoy_fluoxetine
     RDKit          3D

 40 41  0  0  0  0  0  0  0  0999 V2000
    4.8257    1.9585    0.1275 C   0  0  0  0  0  0  0  0  0  0  0  0
    3.9083    2.0731    1.2529 N   0  0  0  0  0  0  0  0  0  0  0  0
    2.8481    1.0617    1.2213 C   0  0  0  0  0  0  0  0  0  0  0  0
    1.7678    1.3494    0.1753 C   0  0  0  0  0  0  0  0  0  0  0  0
    0.5650    0.3881    0.2693 C   0  0  0  0  0  0  0  0  0  0  0  0
   -0.4193    0.9002   -0.6490 O   0  0  0  0  0  0  0  0  0  0  0  0
   -1.7432    0.6796   -0.3944 C   0  0  0  0  0  0  0  0  0  0  0  0
   -2.2679   -0.2524    0.4986 C   0  0  0  0  0  0  0  0  0  0  0  0
   -3.6539   -0.3805    0.6504 C   0  0  0  0  0  0  0  0  0  0  0  0
   -4.5356    0.4130   -0.0982 C   0  0  0  0  0  0  0  0  0  0  0  0
   -6.0279    0.2871    0.0841 C   0  0  0  0  0  0  0  0  0  0  0  0
   -6.5003    1.1089    1.0616 F   0  0  0  0  0  0  0  0  0  0  0  0
   -6.4204   -0.9706    0.4318 F   0  0  0  0  0  0  0  0  0  0  0  0
   -6.7338    0.5980   -1.0391 F   0  0  0  0  0  0  0  0  0  0  0  0
   -4.0009    1.3462   -0.9959 C   0  0  0  0  0  0  0  0  0  0  0  0
   -2.6172    1.4697   -1.1450 C   0  0  0  0  0  0  0  0  0  0  0  0
    0.9560   -1.0345   -0.0982 C   0  0  0  0  0  0  0  0  0  0  0  0
    1.1387   -1.4154   -1.4366 C   0  0  0  0  0  0  0  0  0  0  0  0
    1.5107   -2.7209   -1.7604 C   0  0  0  0  0  0  0  0  0  0  0  0
    1.7087   -3.6607   -0.7515 C   0  0  0  0  0  0  0  0  0  0  0  0
    1.5349   -3.2969    0.5821 C   0  0  0  0  0  0  0  0  0  0  0  0
    1.1615   -1.9920    0.9082 C   0  0  0  0  0  0  0  0  0  0  0  0
    5.2858    0.9659    0.0885 H   0  0  0  0  0  0  0  0  0  0  0  0
    5.6334    2.6878    0.2456 H   0  0  0  0  0  0  0  0  0  0  0  0
    4.3328    2.1637   -0.8272 H   0  0  0  0  0  0  0  0  0  0  0  0
    3.5002    3.0074    1.2647 H   0  0  0  0  0  0  0  0  0  0  0  0
    2.3828    1.0515    2.2141 H   0  0  0  0  0  0  0  0  0  0  0  0
    3.2882    0.0686    1.0783 H   0  0  0  0  0  0  0  0  0  0  0  0
    2.1905    1.3170   -0.8369 H   0  0  0  0  0  0  0  0  0  0  0  0
    1.3986    2.3760    0.3061 H   0  0  0  0  0  0  0  0  0  0  0  0
    0.1779    0.4384    1.2956 H   0  0  0  0  0  0  0  0  0  0  0  0
   -1.6318   -0.9100    1.0807 H   0  0  0  0  0  0  0  0  0  0  0  0
   -4.0438   -1.1154    1.3539 H   0  0  0  0  0  0  0  0  0  0  0  0
   -4.6588    1.9799   -1.5886 H   0  0  0  0  0  0  0  0  0  0  0  0
   -2.2155    2.1928   -1.8516 H   0  0  0  0  0  0  0  0  0  0  0  0
    0.9838   -0.6938   -2.2366 H   0  0  0  0  0  0  0  0  0  0  0  0
    1.6442   -3.0039   -2.8013 H   0  0  0  0  0  0  0  0  0  0  0  0
    1.9986   -4.6771   -1.0050 H   0  0  0  0  0  0  0  0  0  0  0  0
    1.6920   -4.0304    1.3688 H   0  0  0  0  0  0  0  0  0  0  0  0
    1.0359   -1.7277    1.9560 H   0  0  0  0  0  0  0  0  0  0  0  0
  1  2  1  0
  2  3  1  0
  3  4  1  0
  4  5  1  0
  5  6  1  0
  6  7  1  0
  7  8  2  0
  8  9  1  0
  9 10  2  0
 10 11  1  0
 11 12  1  0
 11 13  1  0
 11 14  1  0
 10 15  1  0
 15 16  2  0
  5 17  1  0
 17 18  2  0
 18 19  1  0
 19 20  2  0
 20 21  1  0
 21 22  2  0
 16  7  1  0
 22 17  1  0
  1 23  1  0
  1 24  1  0
  1 25  1  0
  2 26  1  0
  3 27  1  0
  3 28  1  0
  4 29  1  0
  4 30  1  0
  5 31  1  0
  8 32  1  0
  9 33  1  0
 15 34  1  0
 16 35  1  0
 18 36  1  0
 19 37  1  0
 20 38  1  0
 21 39  1  0
 22 40  1  0
M  END
$$$$
decoy_fluconazole
     RDKit          3D

 34 36  0  0  0  0  0  0  0  0999 V2000
   -1.0935    0.8544   -2.0048 O   0  0  0  0  0  0  0  0  0  0  0  0
   -0.2688    0.7586   -0.8184 C   0  0  0  0  0  0  0  0  0  0  0  0
    1.1893    0.5015   -1.3020 C   0  0  0  0  0  0  0  0  0  0  0  0
    1.3832   -0.7437   -2.0246 N   0  0  0  0  0  0  0  0  0  0  0  0
    2.4549   -1.5788   -1.9616 C   0  0  0  0  0  0  0  0  0  0  0  0
    2.2574   -2.6041   -2.7568 N   0  0  0  0  0  0  0  0  0  0  0  0
    1.0375   -2.3379   -3.3089 C   0  0  0  0  0  0  0  0  0  0  0  0
    0.4612   -1.2047   -2.8948 N   0  0  0  0  0  0  0  0  0  0  0  0
   -0.3633    2.1594   -0.1617 C   0  0  0  0  0  0  0  0  0  0  0  0
    0.2972    2.2776    1.1154 N   0  0  0  0  0  0  0  0  0  0  0  0
   -0.2737    2.3588    2.3464 C   0  0  0  0  0  0  0  0  0  0  0  0
    0.6666    2.4664    3.2561 N   0  0  0  0  0  0  0  0  0  0  0  0
    1.8140    2.4628    2.5175 C   0  0  0  0  0  0  0  0  0  0  0  0
    1.6399    2.3358    1.1982 N   0  0  0  0  0  0  0  0  0  0  0  0
   -0.8808   -0.2977    0.1096 C   0  0  0  0  0  0  0  0  0  0  0  0
   -0.0977   -1.2119    0.8392 C   0  0  0  0  0  0  0  0  0  0  0  0
   -0.6943   -2.1549    1.6835 C   0  0  0  0  0  0  0  0  0  0  0  0
   -2.0755   -2.1857    1.8215 C   0  0  0  0  0  0  0  0  0  0  0  0
   -2.6383   -3.0882    2.6345 F   0  0  0  0  0  0  0  0  0  0  0  0
   -2.8745   -1.2821    1.1440 C   0  0  0  0  0  0  0  0  0  0  0  0
   -2.2748   -0.3472    0.3063 C   0  0  0  0  0  0  0  0  0  0  0  0
   -3.0706    0.5517   -0.2899 F   0  0  0  0  0  0  0  0  0  0  0  0
   -0.9388    0.0319   -2.5243 H   0  0  0  0  0  0  0  0  0  0  0  0
    1.4951    1.2857   -2.0060 H   0  0  0  0  0  0  0  0  0  0  0  0
    1.9038    0.4878   -0.4748 H   0  0  0  0  0  0  0  0  0  0  0  0
    3.3234   -1.4019   -1.3419 H   0  0  0  0  0  0  0  0  0  0  0  0
    0.5575   -2.9868   -4.0307 H   0  0  0  0  0  0  0  0  0  0  0  0
   -1.4110    2.4545   -0.0182 H   0  0  0  0  0  0  0  0  0  0  0  0
    0.0639    2.9252   -0.8226 H   0  0  0  0  0  0  0  0  0  0  0  0
   -1.3410    2.3342    2.5202 H   0  0  0  0  0  0  0  0  0  0  0  0
    2.8012    2.5508    2.9538 H   0  0  0  0  0  0  0  0  0  0  0  0
    0.9879   -1.2115    0.7865 H   0  0  0  0  0  0  0  0  0  0  0  0
   -0.0865   -2.8633    2.2399 H   0  0  0  0  0  0  0  0  0  0  0  0
   -3.9509   -1.2968    1.2694 H   0  0  0  0  0  0  0  0  0  0  0  0
  1  2  1  0
  2  3  1  0
  3  4  1  0
  4  5  1  0
  5  6  2  0
  6  7  1  0
  7  8  2  0
  2  9  1  0
  9 10  1  0
 10 11  1  0
 11 12  2  0
 12 13  1  0
 13 14  2  0
  2 15  1  0
 15 16  2  0
 16 17  1  0
 17 18  2  0
 18 19  1  0
 18 20  1  0
 20 21  2  0
 21 22  1  0
  8  4  1  0
 14 10  1  0
 21 15  1  0
  1 23  1  0
  3 24  1  0
  3 25  1  0
  5 26  1  0
  7 27  1  0
  9 28  1  0
  9 29  1  0
 11 30  1  0
 13 31  1  0
 16 32  1  0
 17 33  1  0
 20 34  1  0
M  END
$$$$
decoy_diphenhydramine
     RDKit          3D

 40 41  0  0  0  0  0  0  0  0999 V2000
    4.7229   -0.8450   -0.0346 C   0  0  0  0  0  0  0  0  0  0  0  0
    3.6324   -1.0430   -0.9864 N   0  0  0  0  0  0  0  0  0  0  0  0
    3.6442   -0.0089   -2.0185 C   0  0  0  0  0  0  0  0  0  0  0  0
    2.3213   -1.1716   -0.3261 C   0  0  0  0  0  0  0  0  0  0  0  0
    1.7947    0.0474    0.4575 C   0  0  0  0  0  0  0  0  0  0  0  0
    0.5306   -0.2388    1.0624 O   0  0  0  0  0  0  0  0  0  0  0  0
   -0.5887   -0.0418    0.1818 C   0  0  0  0  0  0  0  0  0  0  0  0
   -1.6402   -1.0973    0.4931 C   0  0  0  0  0  0  0  0  0  0  0  0
   -2.3227   -1.7478   -0.5510 C   0  0  0  0  0  0  0  0  0  0  0  0
   -3.3025   -2.7058   -0.2760 C   0  0  0  0  0  0  0  0  0  0  0  0
   -3.6159   -3.0242    1.0438 C   0  0  0  0  0  0  0  0  0  0  0  0
   -2.9514   -2.3854    2.0905 C   0  0  0  0  0  0  0  0  0  0  0  0
   -1.9714   -1.4278    1.8174 C   0  0  0  0  0  0  0  0  0  0  0  0
   -1.1324    1.3757    0.3067 C   0  0  0  0  0  0  0  0  0  0  0  0
   -1.7746    1.9801   -0.7886 C   0  0  0  0  0  0  0  0  0  0  0  0
   -2.2901    3.2740   -0.6888 C   0  0  0  0  0  0  0  0  0  0  0  0
   -2.1774    3.9790    0.5076 C   0  0  0  0  0  0  0  0  0  0  0  0
   -1.5507    3.3913    1.6056 C   0  0  0  0  0  0  0  0  0  0  0  0
   -1.0335    2.0983    1.5069 C   0  0  0  0  0  0  0  0  0  0  0  0
    4.6633    0.1230    0.4750 H   0  0  0  0  0  0  0  0  0  0  0  0
    4.7266   -1.6387    0.7215 H   0  0  0  0  0  0  0  0  0  0  0  0
    5.6914   -0.8980   -0.5467 H   0  0  0  0  0  0  0  0  0  0  0  0
    3.5431    1.0015   -1.6074 H   0  0  0  0  0  0  0  0  0  0  0  0
    4.5822   -0.0501   -2.5860 H   0  0  0  0  0  0  0  0  0  0  0  0
    2.8342   -0.1707   -2.7387 H   0  0  0  0  0  0  0  0  0  0  0  0
    2.3492   -2.0354    0.3539 H   0  0  0  0  0  0  0  0  0  0  0  0
    1.5824   -1.4628   -1.0826 H   0  0  0  0  0  0  0  0  0  0  0  0
    1.7213    0.9429   -0.1692 H   0  0  0  0  0  0  0  0  0  0  0  0
    2.4798    0.2792    1.2793 H   0  0  0  0  0  0  0  0  0  0  0  0
   -0.2514   -0.1929   -0.8526 H   0  0  0  0  0  0  0  0  0  0  0  0
   -2.0969   -1.5123   -1.5887 H   0  0  0  0  0  0  0  0  0  0  0  0
   -3.8222   -3.2033   -1.0925 H   0  0  0  0  0  0  0  0  0  0  0  0
   -4.3786   -3.7692    1.2571 H   0  0  0  0  0  0  0  0  0  0  0  0
   -3.1942   -2.6308    3.1210 H   0  0  0  0  0  0  0  0  0  0  0  0
   -1.4602   -0.9370    2.6448 H   0  0  0  0  0  0  0  0  0  0  0  0
   -1.8809    1.4434   -1.7283 H   0  0  0  0  0  0  0  0  0  0  0  0
   -2.7820    3.7310   -1.5443 H   0  0  0  0  0  0  0  0  0  0  0  0
   -2.5825    4.9844    0.5860 H   0  0  0  0  0  0  0  0  0  0  0  0
   -1.4691    3.9354    2.5424 H   0  0  0  0  0  0  0  0  0  0  0  0
   -0.5502    1.6521    2.3753 H   0  0  0  0  0  0  0  0  0  0  0  0
  1  2  1  0
  2  3  1  0
  2  4  1  0
  4  5  1  0
  5  6  1  0
  6  7  1  0
  7  8  1  0
  8  9  2  0
  9 10  1  0
 10 11  2  0
 11 12  1  0
 12 13  2  0
  7 14  1  0
 14 15  2  0
 15 16  1  0
 16 17  2  0
 17 18  1  0
 18 19  2  0
 13  8  1  0
 19 14  1  0
  1 20  1  0
  1 21  1  0
  1 22  1  0
  3 23  1  0
  3 24  1  0
  3 25  1  0
  4 26  1  0
  4 27  1  0
  5 28  1  0
  5 29  1  0
  7 30  1  0
  9 31  1  0
 10 32  1  0
 11 33  1  0
 12 34  1  0
 13 35  1  0
 15 36  1  0
 16 37  1  0
 17 38  1  0
 18 39  1  0
 19 40  1  0
M  END
$$$$
decoy_diazepam
     RDKit          3D

 33 35  0  0  0  0  0  0  0  0999 V2000
   -3.5213    0.5726   -1.1855 C   0  0  0  0  0  0  0  0  0  0  0  0
   -2.3349    0.8748   -0.3957 N   0  0  0  0  0  0  0  0  0  0  0  0
   -1.9370    2.2172   -0.3535 C   0  0  0  0  0  0  0  0  0  0  0  0
   -2.5029    3.0933   -1.0145 O   0  0  0  0  0  0  0  0  0  0  0  0
   -0.8215    2.5829    0.6159 C   0  0  0  0  0  0  0  0  0  0  0  0
    0.4407    2.0392    0.1260 N   0  0  0  0  0  0  0  0  0  0  0  0
    0.6065    0.7604    0.1712 C   0  0  0  0  0  0  0  0  0  0  0  0
    1.8829    0.2142   -0.3926 C   0  0  0  0  0  0  0  0  0  0  0  0
    3.0590    0.9623   -0.2601 C   0  0  0  0  0  0  0  0  0  0  0  0
    4.2609    0.4758   -0.7766 C   0  0  0  0  0  0  0  0  0  0  0  0
    4.2902   -0.7527   -1.4356 C   0  0  0  0  0  0  0  0  0  0  0  0
    3.1178   -1.4930   -1.5876 C   0  0  0  0  0  0  0  0  0  0  0  0
    1.9127   -1.0102   -1.0727 C   0  0  0  0  0  0  0  0  0  0  0  0
   -0.3867   -0.1899    0.7524 C   0  0  0  0  0  0  0  0  0  0  0  0
    0.1109   -1.1812    1.6193 C   0  0  0  0  0  0  0  0  0  0  0  0
   -0.7344   -2.1700    2.1079 C   0  0  0  0  0  0  0  0  0  0  0  0
   -0.1173   -3.3870    3.1530 Cl  0  0  0  0  0  0  0  0  0  0  0  0
   -2.0739   -2.1840    1.7440 C   0  0  0  0  0  0  0  0  0  0  0  0
   -2.5770   -1.1853    0.9036 C   0  0  0  0  0  0  0  0  0  0  0  0
   -1.7544   -0.1524    0.4131 C   0  0  0  0  0  0  0  0  0  0  0  0
   -4.4090    0.6886   -0.5557 H   0  0  0  0  0  0  0  0  0  0  0  0
   -3.4659   -0.4436   -1.5887 H   0  0  0  0  0  0  0  0  0  0  0  0
   -3.6109    1.2569   -2.0350 H   0  0  0  0  0  0  0  0  0  0  0  0
   -1.0623    2.2670    1.6372 H   0  0  0  0  0  0  0  0  0  0  0  0
   -0.7406    3.6753    0.6430 H   0  0  0  0  0  0  0  0  0  0  0  0
    3.0414    1.9261    0.2440 H   0  0  0  0  0  0  0  0  0  0  0  0
    5.1718    1.0596   -0.6703 H   0  0  0  0  0  0  0  0  0  0  0  0
    5.2265   -1.1278   -1.8417 H   0  0  0  0  0  0  0  0  0  0  0  0
    3.1417   -2.4426   -2.1168 H   0  0  0  0  0  0  0  0  0  0  0  0
    1.0071   -1.5901   -1.2268 H   0  0  0  0  0  0  0  0  0  0  0  0
    1.1606   -1.1874    1.9056 H   0  0  0  0  0  0  0  0  0  0  0  0
   -2.7398   -2.9569    2.1208 H   0  0  0  0  0  0  0  0  0  0  0  0
   -3.6410   -1.2122    0.6800 H   0  0  0  0  0  0  0  0  0  0  0  0
  1  2  1  0
  2  3  1  0
  3  4  2  0
  3  5  1  0
  5  6  1  0
  6  7  2  0
  7  8  1  0
  8  9  2  0
  9 10  1  0
 10 11  2  0
 11 12  1  0
 12 13  2  0
  7 14  1  0
 14 15  2  0
 15 16  1  0
 16 17  1  0
 16 18  2  0
 18 19  1  0
 19 20  2  0
 20  2  1  0
 13  8  1  0
 20 14  1  0
  1 21  1  0
  1 22  1  0
  1 23  1  0
  5 24  1  0
  5 25  1  0
  9 26  1  0
 10 27  1  0
 11 28  1  0
 12 29  1  0
 13 30  1  0
 15 31  1  0
 18 32  1  0
 19 33  1  0
M  END
$$$$
decoy_ciprofloxacin
     RDKit          3D

 42 45  0  0  0  0  0  0  0  0999 V2000
   -6.2795   -0.9114   -0.2107 O   0  0  0  0  0  0  0  0  0  0  0  0
   -5.3632   -1.4949    0.3458 C   0  0  0  0  0  0  0  0  0  0  0  0
   -5.5641   -2.6797    0.9401 O   0  0  0  0  0  0  0  0  0  0  0  0
   -3.9641   -1.0546    0.3784 C   0  0  0  0  0  0  0  0  0  0  0  0
   -3.5400   -0.2571   -0.6140 C   0  0  0  0  0  0  0  0  0  0  0  0
   -2.2606    0.2475   -0.7623 N   0  0  0  0  0  0  0  0  0  0  0  0
   -1.9659    1.0613   -1.9569 C   0  0  0  0  0  0  0  0  0  0  0  0
   -2.8442    2.2143   -2.3823 C   0  0  0  0  0  0  0  0  0  0  0  0
   -1.4763    2.4843   -1.8414 C   0  0  0  0  0  0  0  0  0  0  0  0
   -1.2315   -0.2103    0.1087 C   0  0  0  0  0  0  0  0  0  0  0  0
    0.1234    0.1231   -0.0711 C   0  0  0  0  0  0  0  0  0  0  0  0
    1.1441   -0.3210    0.7984 C   0  0  0  0  0  0  0  0  0  0  0  0
    2.4683    0.0846    0.5350 N   0  0  0  0  0  0  0  0  0  0  0  0
    3.4609   -0.0506    1.6266 C   0  0  0  0  0  0  0  0  0  0  0  0
    4.7780    0.6620    1.2408 C   0  0  0  0  0  0  0  0  0  0  0  0
    5.3549    0.1729   -0.0268 N   0  0  0  0  0  0  0  0  0  0  0  0
    4.3419    0.2782   -1.0928 C   0  0  0  0  0  0  0  0  0  0  0  0
    3.0050   -0.4234   -0.7529 C   0  0  0  0  0  0  0  0  0  0  0  0
    0.7421   -1.1092    1.8923 C   0  0  0  0  0  0  0  0  0  0  0  0
    1.6366   -1.5745    2.7778 F   0  0  0  0  0  0  0  0  0  0  0  0
   -0.5879   -1.4647    2.0963 C   0  0  0  0  0  0  0  0  0  0  0  0
   -1.5667   -1.0243    1.2039 C   0  0  0  0  0  0  0  0  0  0  0  0
   -2.9817   -1.4195    1.4259 C   0  0  0  0  0  0  0  0  0  0  0  0
   -3.2948   -2.0060    2.4559 O   0  0  0  0  0  0  0  0  0  0  0  0
   -6.5257   -2.8435    0.8642 H   0  0  0  0  0  0  0  0  0  0  0  0
   -4.2237    0.0470   -1.4042 H   0  0  0  0  0  0  0  0  0  0  0  0
   -1.5454    0.4587   -2.7595 H   0  0  0  0  0  0  0  0  0  0  0  0
   -3.6872    2.4932   -1.7608 H   0  0  0  0  0  0  0  0  0  0  0  0
   -3.0103    2.3573   -3.4436 H   0  0  0  0  0  0  0  0  0  0  0  0
   -1.4034    2.9245   -0.8533 H   0  0  0  0  0  0  0  0  0  0  0  0
   -0.7102    2.8139   -2.5328 H   0  0  0  0  0  0  0  0  0  0  0  0
    0.4086    0.7711   -0.8947 H   0  0  0  0  0  0  0  0  0  0  0  0
    3.6777   -1.1086    1.8212 H   0  0  0  0  0  0  0  0  0  0  0  0
    3.0816    0.4109    2.5461 H   0  0  0  0  0  0  0  0  0  0  0  0
    5.5124    0.5117    2.0394 H   0  0  0  0  0  0  0  0  0  0  0  0
    4.6007    1.7422    1.1631 H   0  0  0  0  0  0  0  0  0  0  0  0
    6.1580    0.7512   -0.2703 H   0  0  0  0  0  0  0  0  0  0  0  0
    4.7518   -0.1615   -2.0085 H   0  0  0  0  0  0  0  0  0  0  0  0
    4.1509    1.3384   -1.3022 H   0  0  0  0  0  0  0  0  0  0  0  0
    3.1625   -1.5081   -0.6859 H   0  0  0  0  0  0  0  0  0  0  0  0
    2.3132   -0.2395   -1.5825 H   0  0  0  0  0  0  0  0  0  0  0  0
   -0.8457   -2.0861    2.9496 H   0  0  0  0  0  0  0  0  0  0  0  0
  1  2  2  0
  2  3  1  0
  2  4  1  0
  4  5  2  0
  5  6  1  0
  6  7  1  0
  7  8  1  0
  8  9  1  0
  6 10  1  0
 10 11  2  0
 11 12  1  0
 12 13  1  0
 13 14  1  0
 14 15  1  0
 15 16  1  0
 16 17  1  0
 17 18  1  0
 12 19  2  0
 19 20  1  0
 19 21  1  0
 21 22  2  0
 22 23  1  0
 23 24  2  0
 23  4  1  0
  9  7  1  0
 22 10  1  0
 18 13  1  0
  3 25  1  0
  5 26  1  0
  7 27  1  0
  8 28  1  0
  8 29  1  0
  9 30  1  0
  9 31  1  0
 11 32  1  0
 14 33  1  0
 14 34  1  0
 15 35  1  0
 15 36  1  0
 16 37  1  0
 17 38  1  0
 17 39  1  0
 18 40  1  0
 18 41  1  0
 21 42  1  0
M  END
$$$$
decoy_chlorpromazine
     RDKit          3D

 40 42  0  0  0  0  0  0  0  0999 V2000
    4.5670    0.5985    1.2305 C   0  0  0  0  0  0  0  0  0  0  0  0
    3.3762   -0.0347    0.6532 N   0  0  0  0  0  0  0  0  0  0  0  0
    3.7779   -1.2277   -0.0982 C   0  0  0  0  0  0  0  0  0  0  0  0
    2.6556    0.9274   -0.1959 C   0  0  0  0  0  0  0  0  0  0  0  0
    1.2338    0.4851   -0.5626 C   0  0  0  0  0  0  0  0  0  0  0  0
    0.3561    0.2649    0.6794 C   0  0  0  0  0  0  0  0  0  0  0  0
   -1.0645    0.0421    0.3065 N   0  0  0  0  0  0  0  0  0  0  0  0
   -1.4863   -1.3089    0.1302 C   0  0  0  0  0  0  0  0  0  0  0  0
   -0.5680   -2.3753   -0.0059 C   0  0  0  0  0  0  0  0  0  0  0  0
   -0.9712   -3.7036   -0.1924 C   0  0  0  0  0  0  0  0  0  0  0  0
   -2.3179   -4.0155   -0.2531 C   0  0  0  0  0  0  0  0  0  0  0  0
   -3.2527   -2.9951   -0.1281 C   0  0  0  0  0  0  0  0  0  0  0  0
   -2.8506   -1.6566    0.0580 C   0  0  0  0  0  0  0  0  0  0  0  0
   -4.1751   -0.4850    0.2275 S   0  0  0  0  0  0  0  0  0  0  0  0
   -3.3163    1.0685    0.1835 C   0  0  0  0  0  0  0  0  0  0  0  0
   -4.1433    2.2085    0.1112 C   0  0  0  0  0  0  0  0  0  0  0  0
   -3.6009    3.4880    0.0875 C   0  0  0  0  0  0  0  0  0  0  0  0
   -2.2254    3.6294    0.1356 C   0  0  0  0  0  0  0  0  0  0  0  0
   -1.5276    5.2030    0.0970 Cl  0  0  0  0  0  0  0  0  0  0  0  0
   -1.3969    2.5048    0.2103 C   0  0  0  0  0  0  0  0  0  0  0  0
   -1.9116    1.1881    0.2430 C   0  0  0  0  0  0  0  0  0  0  0  0
    5.2674    0.9414    0.4602 H   0  0  0  0  0  0  0  0  0  0  0  0
    5.0930   -0.0998    1.8912 H   0  0  0  0  0  0  0  0  0  0  0  0
    4.2844    1.4577    1.8489 H   0  0  0  0  0  0  0  0  0  0  0  0
    4.3149   -1.9270    0.5530 H   0  0  0  0  0  0  0  0  0  0  0  0
    4.4268   -0.9831   -0.9470 H   0  0  0  0  0  0  0  0  0  0  0  0
    2.9075   -1.7728   -0.4748 H   0  0  0  0  0  0  0  0  0  0  0  0
    3.2211    1.1358   -1.1136 H   0  0  0  0  0  0  0  0  0  0  0  0
    2.5659    1.8849    0.3347 H   0  0  0  0  0  0  0  0  0  0  0  0
    1.2597   -0.4149   -1.1855 H   0  0  0  0  0  0  0  0  0  0  0  0
    0.7950    1.2601   -1.2022 H   0  0  0  0  0  0  0  0  0  0  0  0
    0.7388   -0.5641    1.2874 H   0  0  0  0  0  0  0  0  0  0  0  0
    0.4470    1.1139    1.3692 H   0  0  0  0  0  0  0  0  0  0  0  0
    0.5035   -2.2086    0.0163 H   0  0  0  0  0  0  0  0  0  0  0  0
   -0.2244   -4.4872   -0.2916 H   0  0  0  0  0  0  0  0  0  0  0  0
   -2.6417   -5.0423   -0.3964 H   0  0  0  0  0  0  0  0  0  0  0  0
   -4.3102   -3.2482   -0.1743 H   0  0  0  0  0  0  0  0  0  0  0  0
   -5.2259    2.0993    0.0736 H   0  0  0  0  0  0  0  0  0  0  0  0
   -4.2517    4.3554    0.0303 H   0  0  0  0  0  0  0  0  0  0  0  0
   -0.3294    2.6938    0.2255 H   0  0  0  0  0  0  0  0  0  0  0  0
  1  2  1  0
  2  3  1  0
  2  4  1  0
  4  5  1  0
  5  6  1  0
  6  7  1  0
  7  8  1  0
  8  9  2  0
  9 10  1  0
 10 11  2  0
 11 12  1  0
 12 13  2  0
 13 14  1  0
 14 15  1  0
 15 16  2  0
 16 17  1  0
 17 18  2  0
 18 19  1  0
 18 20  1  0
 20 21  2  0
 21  7  1  0
 13  8  1  0
 21 15  1  0
  1 22  1  0
  1 23  1  0
  1 24  1  0
  3 25  1  0
  3 26  1  0
  3 27  1  0
  4 28  1  0
  4 29  1  0
  5 30  1  0
  5 31  1  0
  6 32  1  0
  6 33  1  0
  9 34  1  0
 10 35  1  0
 11 36  1  0
 12 37  1  0
 16 38  1  0
 17 39  1  0
 20 40  1  0
M  END
$$$$
decoy_celecoxib
     RDKit          3D

 40 42  0  0  0  0  0  0  0  0999 V2000
   -4.2592    2.0181    2.5830 C   0  0  0  0  0  0  0  0  0  0  0  0
   -3.4400    1.1930    1.6347 C   0  0  0  0  0  0  0  0  0  0  0  0
   -2.7253    1.8049    0.5986 C   0  0  0  0  0  0  0  0  0  0  0  0
   -1.9878    1.0348   -0.3042 C   0  0  0  0  0  0  0  0  0  0  0  0
   -1.9544   -0.3594   -0.1825 C   0  0  0  0  0  0  0  0  0  0  0  0
   -1.1976   -1.1681   -1.1326 C   0  0  0  0  0  0  0  0  0  0  0  0
   -1.7199   -2.0412   -2.0692 C   0  0  0  0  0  0  0  0  0  0  0  0
   -0.6370   -2.4598   -2.8695 C   0  0  0  0  0  0  0  0  0  0  0  0
   -0.7006   -3.3845   -4.0553 C   0  0  0  0  0  0  0  0  0  0  0  0
    0.1509   -4.4380   -3.9435 F   0  0  0  0  0  0  0  0  0  0  0  0
   -0.4034   -2.7521   -5.2214 F   0  0  0  0  0  0  0  0  0  0  0  0
   -1.9460   -3.9145   -4.2140 F   0  0  0  0  0  0  0  0  0  0  0  0
    0.5043   -1.8872   -2.4553 N   0  0  0  0  0  0  0  0  0  0  0  0
    0.1831   -1.1677   -1.3404 N   0  0  0  0  0  0  0  0  0  0  0  0
    1.2448   -0.5694   -0.5865 C   0  0  0  0  0  0  0  0  0  0  0  0
    2.5302   -0.5060   -1.1597 C   0  0  0  0  0  0  0  0  0  0  0  0
    3.5991    0.0659   -0.4635 C   0  0  0  0  0  0  0  0  0  0  0  0
    3.3894    0.5782    0.8163 C   0  0  0  0  0  0  0  0  0  0  0  0
    4.7449    1.2731    1.7139 S   0  0  0  0  0  6  0  0  0  0  0  0
    4.7127    2.8730    1.2058 N   0  0  0  0  0  0  0  0  0  0  0  0
    4.4216    1.2996    3.1214 O   0  0  0  0  0  0  0  0  0  0  0  0
    5.9815    0.7208    1.2130 O   0  0  0  0  0  0  0  0  0  0  0  0
    2.1305    0.4954    1.4133 C   0  0  0  0  0  0  0  0  0  0  0  0
    1.0621   -0.0789    0.7136 C   0  0  0  0  0  0  0  0  0  0  0  0
   -2.6945   -0.9743    0.8334 C   0  0  0  0  0  0  0  0  0  0  0  0
   -3.4314   -0.2030    1.7358 C   0  0  0  0  0  0  0  0  0  0  0  0
   -4.3206    1.5380    3.5653 H   0  0  0  0  0  0  0  0  0  0  0  0
   -5.2715    2.1474    2.1880 H   0  0  0  0  0  0  0  0  0  0  0  0
   -3.8081    3.0048    2.7318 H   0  0  0  0  0  0  0  0  0  0  0  0
   -2.7409    2.8868    0.4850 H   0  0  0  0  0  0  0  0  0  0  0  0
   -1.4443    1.5332   -1.1041 H   0  0  0  0  0  0  0  0  0  0  0  0
   -2.7641   -2.2987   -2.1947 H   0  0  0  0  0  0  0  0  0  0  0  0
    2.7172   -0.8953   -2.1601 H   0  0  0  0  0  0  0  0  0  0  0  0
    4.5832    0.1032   -0.9256 H   0  0  0  0  0  0  0  0  0  0  0  0
    4.5267    3.4838    2.0015 H   0  0  0  0  0  0  0  0  0  0  0  0
    5.5767    3.0943    0.7100 H   0  0  0  0  0  0  0  0  0  0  0  0
    1.9708    0.8633    2.4251 H   0  0  0  0  0  0  0  0  0  0  0  0
    0.1171   -0.1560    1.2393 H   0  0  0  0  0  0  0  0  0  0  0  0
   -2.6997   -2.0574    0.9346 H   0  0  0  0  0  0  0  0  0  0  0  0
   -4.0007   -0.7001    2.5185 H   0  0  0  0  0  0  0  0  0  0  0  0
  1  2  1  0
  2  3  2  0
  3  4  1  0
  4  5  2  0
  5  6  1  0
  6  7  2  0
  7  8  1  0
  8  9  1  0
  9 10  1  0
  9 11  1  0
  9 12  1  0
  8 13  2  0
 13 14  1  0
 14 15  1  0
 15 16  2  0
 16 17  1  0
 17 18  2  0
 18 19  1  0
 19 20  1  0
 19 21  2  0
 19 22  2  0
 18 23  1  0
 23 24  2  0
  5 25  1  0
 25 26  2  0
 26  2  1  0
 14  6  1  0
 24 15  1  0
  1 27  1  0
  1 28  1  0
  1 29  1  0
  3 30  1  0
  4 31  1  0
  7 32  1  0
 16 33  1  0
 17 34  1  0
 20 35  1  0
 20 36  1  0
 23 37  1  0
 24 38  1  0
 25 39  1  0
 26 40  1  0
M  END
$$$$
decoy_captopril
     RDKit          3D

 29 29  0  0  0  0  0  0  0  0999 V2000
    2.0631    0.8043    1.0801 C   0  0  0  0  0  0  0  0  0  0  0  0
    1.8943   -0.1644   -0.0937 C   0  0  0  0  0  0  0  0  0  0  0  0
    3.0631   -0.0652   -1.0883 C   0  0  0  0  0  0  0  0  0  0  0  0
    4.6273   -0.7158   -0.4108 S   0  0  0  0  0  0  0  0  0  0  0  0
    0.5885    0.1492   -0.8269 C   0  0  0  0  0  0  0  0  0  0  0  0
    0.5909    0.6880   -1.9357 O   0  0  0  0  0  0  0  0  0  0  0  0
   -0.5987   -0.1558   -0.1952 N   0  0  0  0  0  0  0  0  0  0  0  0
   -0.8035   -1.0201    0.9545 C   0  0  0  0  0  0  0  0  0  0  0  0
   -2.1656   -1.6432    0.6984 C   0  0  0  0  0  0  0  0  0  0  0  0
   -2.9332   -0.5194    0.0171 C   0  0  0  0  0  0  0  0  0  0  0  0
   -1.8750    0.1894   -0.8362 C   0  0  0  0  0  0  0  0  0  0  0  0
   -2.1888    1.6873   -0.8725 C   0  0  0  0  0  0  0  0  0  0  0  0
   -3.1420    2.1942   -1.4476 O   0  0  0  0  0  0  0  0  0  0  0  0
   -1.3689    2.4587   -0.1279 O   0  0  0  0  0  0  0  0  0  0  0  0
    1.2112    0.7668    1.7647 H   0  0  0  0  0  0  0  0  0  0  0  0
    2.9577    0.5755    1.6668 H   0  0  0  0  0  0  0  0  0  0  0  0
    2.1435    1.8382    0.7254 H   0  0  0  0  0  0  0  0  0  0  0  0
    1.8439   -1.1944    0.2740 H   0  0  0  0  0  0  0  0  0  0  0  0
    3.2305    0.9746   -1.3908 H   0  0  0  0  0  0  0  0  0  0  0  0
    2.8450   -0.6381   -1.9965 H   0  0  0  0  0  0  0  0  0  0  0  0
    4.2409   -1.9973   -0.3299 H   0  0  0  0  0  0  0  0  0  0  0  0
   -0.8264   -0.3895    1.8492 H   0  0  0  0  0  0  0  0  0  0  0  0
   -0.0223   -1.7747    1.0592 H   0  0  0  0  0  0  0  0  0  0  0  0
   -2.6480   -1.9960    1.6140 H   0  0  0  0  0  0  0  0  0  0  0  0
   -2.0679   -2.4922    0.0110 H   0  0  0  0  0  0  0  0  0  0  0  0
   -3.7659   -0.8927   -0.5872 H   0  0  0  0  0  0  0  0  0  0  0  0
   -3.3517    0.1538    0.7761 H   0  0  0  0  0  0  0  0  0  0  0  0
   -1.8533   -0.1907   -1.8639 H   0  0  0  0  0  0  0  0  0  0  0  0
   -1.6887    3.3695   -0.2920 H   0  0  0  0  0  0  0  0  0  0  0  0
  1  2  1  0
  2  3  1  0
  3  4  1  0
  2  5  1  0
  5  6  2  0
  5  7  1  0
  7  8  1  0
  8  9  1  0
  9 10  1  0
 10 11  1  0
 11 12  1  0
 12 13  2  0
 12 14  1  0
 11  7  1  0
  1 15  1  0
  1 16  1  0
  1 17  1  0
  2 18  1  0
  3 19  1  0
  3 20  1  0
  4 21  1  0
  8 22  1  0
  8 23  1  0
  9 24  1  0
  9 25  1  0
 10 26  1  0
 10 27  1  0
 11 28  1  0
 14 29  1  0
M  END
$$$$
decoy_caffeine
     RDKit          3D

 24 25  0  0  0  0  0  0  0  0999 V2000
    3.3041    0.2849    0.3296 C   0  0  0  0  0  0  0  0  0  0  0  0
    2.0880   -0.4850    0.2634 N   0  0  0  0  0  0  0  0  0  0  0  0
    1.9862   -1.8473    0.3655 C   0  0  0  0  0  0  0  0  0  0  0  0
    0.7349   -2.2503    0.2651 N   0  0  0  0  0  0  0  0  0  0  0  0
    0.0220   -1.1023    0.0937 C   0  0  0  0  0  0  0  0  0  0  0  0
    0.8233   -0.0012    0.0881 C   0  0  0  0  0  0  0  0  0  0  0  0
    0.3289    1.3212   -0.0743 C   0  0  0  0  0  0  0  0  0  0  0  0
    1.0600    2.3071   -0.0779 O   0  0  0  0  0  0  0  0  0  0  0  0
   -1.0601    1.3646   -0.2264 N   0  0  0  0  0  0  0  0  0  0  0  0
   -1.6882    2.6595   -0.4009 C   0  0  0  0  0  0  0  0  0  0  0  0
   -1.9230    0.2484   -0.2262 C   0  0  0  0  0  0  0  0  0  0  0  0
   -3.1415    0.3890   -0.3681 O   0  0  0  0  0  0  0  0  0  0  0  0
   -1.3400   -1.0082   -0.0597 N   0  0  0  0  0  0  0  0  0  0  0  0
   -2.1577   -2.2073   -0.0477 C   0  0  0  0  0  0  0  0  0  0  0  0
    3.2326    0.9769    1.1724 H   0  0  0  0  0  0  0  0  0  0  0  0
    3.4232    0.8291   -0.6105 H   0  0  0  0  0  0  0  0  0  0  0  0
    4.1536   -0.3872    0.4761 H   0  0  0  0  0  0  0  0  0  0  0  0
    2.8439   -2.4923    0.5106 H   0  0  0  0  0  0  0  0  0  0  0  0
   -2.2251    2.6687   -1.3552 H   0  0  0  0  0  0  0  0  0  0  0  0
   -2.4133    2.8146    0.4048 H   0  0  0  0  0  0  0  0  0  0  0  0
   -0.9679    3.4813   -0.3920 H   0  0  0  0  0  0  0  0  0  0  0  0
   -1.8380   -2.8660   -0.8615 H   0  0  0  0  0  0  0  0  0  0  0  0
   -2.0275   -2.7190    0.9112 H   0  0  0  0  0  0  0  0  0  0  0  0
   -3.2185   -1.9791   -0.1800 H   0  0  0  0  0  0  0  0  0  0  0  0
  1  2  1  0
  2  3  1  0
  3  4  2  0
  4  5  1  0
  5  6  2  0
  6  7  1  0
  7  8  2  0
  7  9  1  0
  9 10  1  0
  9 11  1  0
 11 12  2  0
 11 13  1  0
 13 14  1  0
  6  2  1  0
 13  5  1  0
  1 15  1  0
  1 16  1  0
  1 17  1  0
  3 18  1  0
 10 19  1  0
 10 20  1  0
 10 21  1  0
 14 22  1  0
 14 23  1  0
 14 24  1  0
M  END
$$$$
decoy_atenolol
     RDKit          3D

 41 41  0  0  0  0  0  0  0  0999 V2000
   -5.3990    0.0988   -0.9825 C   0  0  0  0  0  0  0  0  0  0  0  0
   -4.8947   -0.3835    0.3792 C   0  0  0  0  0  0  0  0  0  0  0  0
   -5.2225    0.6580    1.4514 C   0  0  0  0  0  0  0  0  0  0  0  0
   -3.4429   -0.6063    0.3966 N   0  0  0  0  0  0  0  0  0  0  0  0
   -3.0163   -1.7481   -0.4262 C   0  0  0  0  0  0  0  0  0  0  0  0
   -1.5479   -2.1731   -0.2055 C   0  0  0  0  0  0  0  0  0  0  0  0
   -1.4029   -2.7968    1.0783 O   0  0  0  0  0  0  0  0  0  0  0  0
   -0.5533   -1.0123   -0.3343 C   0  0  0  0  0  0  0  0  0  0  0  0
    0.7665   -1.5737   -0.3304 O   0  0  0  0  0  0  0  0  0  0  0  0
    1.8097   -0.7038   -0.4895 C   0  0  0  0  0  0  0  0  0  0  0  0
    1.7186    0.6852   -0.5482 C   0  0  0  0  0  0  0  0  0  0  0  0
    2.8715    1.4596   -0.7175 C   0  0  0  0  0  0  0  0  0  0  0  0
    4.1308    0.8547   -0.8251 C   0  0  0  0  0  0  0  0  0  0  0  0
    5.3704    1.6967   -1.0047 C   0  0  0  0  0  0  0  0  0  0  0  0
    5.6338    2.6188    0.1687 C   0  0  0  0  0  0  0  0  0  0  0  0
    6.0063    2.0031    1.3306 N   0  0  0  0  0  0  0  0  0  0  0  0
    5.5476    3.8407    0.1029 O   0  0  0  0  0  0  0  0  0  0  0  0
    4.2171   -0.5416   -0.7633 C   0  0  0  0  0  0  0  0  0  0  0  0
    3.0635   -1.3098   -0.5944 C   0  0  0  0  0  0  0  0  0  0  0  0
   -5.2807   -0.6746   -1.7489 H   0  0  0  0  0  0  0  0  0  0  0  0
   -6.4651    0.3463   -0.9330 H   0  0  0  0  0  0  0  0  0  0  0  0
   -4.8625    0.9943   -1.3163 H   0  0  0  0  0  0  0  0  0  0  0  0
   -5.4150   -1.3107    0.6506 H   0  0  0  0  0  0  0  0  0  0  0  0
   -4.7430    1.6215    1.2392 H   0  0  0  0  0  0  0  0  0  0  0  0
   -4.8876    0.3220    2.4402 H   0  0  0  0  0  0  0  0  0  0  0  0
   -6.3040    0.8264    1.5089 H   0  0  0  0  0  0  0  0  0  0  0  0
   -2.9607    0.2432    0.1096 H   0  0  0  0  0  0  0  0  0  0  0  0
   -3.1450   -1.5005   -1.4860 H   0  0  0  0  0  0  0  0  0  0  0  0
   -3.6519   -2.6128   -0.1981 H   0  0  0  0  0  0  0  0  0  0  0  0
   -1.2984   -2.9469   -0.9410 H   0  0  0  0  0  0  0  0  0  0  0  0
   -0.4446   -2.8900    1.2268 H   0  0  0  0  0  0  0  0  0  0  0  0
   -0.7278   -0.4758   -1.2735 H   0  0  0  0  0  0  0  0  0  0  0  0
   -0.6522   -0.3403    0.5262 H   0  0  0  0  0  0  0  0  0  0  0  0
    0.7697    1.2025   -0.4643 H   0  0  0  0  0  0  0  0  0  0  0  0
    2.7790    2.5448   -0.7622 H   0  0  0  0  0  0  0  0  0  0  0  0
    5.2695    2.3005   -1.9138 H   0  0  0  0  0  0  0  0  0  0  0  0
    6.2568    1.0658   -1.1474 H   0  0  0  0  0  0  0  0  0  0  0  0
    5.7182    1.0481    1.5015 H   0  0  0  0  0  0  0  0  0  0  0  0
    6.0676    2.6099    2.1381 H   0  0  0  0  0  0  0  0  0  0  0  0
    5.1785   -1.0464   -0.8527 H   0  0  0  0  0  0  0  0  0  0  0  0
    3.1432   -2.3939   -0.5539 H   0  0  0  0  0  0  0  0  0  0  0  0
  1  2  1  0
  2  3  1  0
  2  4  1  0
  4  5  1  0
  5  6  1  0
  6  7  1  0
  6  8  1  0
  8  9  1  0
  9 10  1  0
 10 11  2  0
 11 12  1  0
 12 13  2  0
 13 14  1  0
 14 15  1  0
 15 16  1  0
 15 17  2  0
 13 18  1  0
 18 19  2  0
 19 10  1  0
  1 20  1  0
  1 21  1  0
  1 22  1  0
  2 23  1  0
  3 24  1  0
  3 25  1  0
  3 26  1  0
  4 27  1  0
  5 28  1  0
  5 29  1  0
  6 30  1  0
  7 31  1  0
  8 32  1  0
  8 33  1  0
 11 34  1  0
 12 35  1  0
 14 36  1  0
 14 37  1  0
 16 38  1  0
 16 39  1  0
 18 40  1  0
 19 41  1  0
M  END
$$$$
decoy_aspirin
     RDKit          3D

 21 21  0  0  0  0  0  0  0  0999 V2000
    3.2986   -0.5952   -0.4326 C   0  0  0  0  0  0  0  0  0  0  0  0
    1.9108   -0.6489    0.1330 C   0  0  0  0  0  0  0  0  0  0  0  0
    1.6498   -0.9284    1.2958 O   0  0  0  0  0  0  0  0  0  0  0  0
    1.0041   -0.3473   -0.8761 O   0  0  0  0  0  0  0  0  0  0  0  0
   -0.3171   -0.3308   -0.4229 C   0  0  0  0  0  0  0  0  0  0  0  0
   -1.0676   -1.4879   -0.6667 C   0  0  0  0  0  0  0  0  0  0  0  0
   -2.4007   -1.5489   -0.2649 C   0  0  0  0  0  0  0  0  0  0  0  0
   -2.9861   -0.4546    0.3686 C   0  0  0  0  0  0  0  0  0  0  0  0
   -2.2401    0.7062    0.5935 C   0  0  0  0  0  0  0  0  0  0  0  0
   -0.8964    0.7878    0.1912 C   0  0  0  0  0  0  0  0  0  0  0  0
   -0.2027    2.0742    0.4508 C   0  0  0  0  0  0  0  0  0  0  0  0
   -0.6723    3.0095    1.0761 O   0  0  0  0  0  0  0  0  0  0  0  0
    1.0202    2.1774   -0.0967 O   0  0  0  0  0  0  0  0  0  0  0  0
    4.0214   -0.7998    0.3624 H   0  0  0  0  0  0  0  0  0  0  0  0
    3.4980    0.4019   -0.8334 H   0  0  0  0  0  0  0  0  0  0  0  0
    3.4106   -1.3535   -1.2114 H   0  0  0  0  0  0  0  0  0  0  0  0
   -0.6118   -2.3424   -1.1593 H   0  0  0  0  0  0  0  0  0  0  0  0
   -2.9822   -2.4503   -0.4424 H   0  0  0  0  0  0  0  0  0  0  0  0
   -4.0249   -0.5012    0.6873 H   0  0  0  0  0  0  0  0  0  0  0  0
   -2.7170    1.5534    1.0845 H   0  0  0  0  0  0  0  0  0  0  0  0
    1.3055    3.0788    0.1634 H   0  0  0  0  0  0  0  0  0  0  0  0
  1  2  1  0
  2  3  2  0
  2  4  1  0
  4  5  1  0
  5  6  2  0
  6  7  1  0
  7  8  2  0
  8  9  1  0
  9 10  2  0
 10 11  1  0
 11 12  2  0
 11 13  1  0
 10  5  1  0
  1 14  1  0
  1 15  1  0
  1 16  1  0
  6 17  1  0
  7 18  1  0
  8 19  1  0
  9 20  1  0
 13 21  1  0
M  END
$$$$
decoy_amlodipine
     RDKit          3D

 53 54  0  0  0  0  0  0  0  0999 V2000
   -0.4066    3.9818   -3.1726 C   0  0  0  0  0  0  0  0  0  0  0  0
   -1.2532    2.7259   -3.0917 C   0  0  0  0  0  0  0  0  0  0  0  0
   -1.0620    2.0813   -1.8245 O   0  0  0  0  0  0  0  0  0  0  0  0
   -0.0254    1.2143   -1.7479 C   0  0  0  0  0  0  0  0  0  0  0  0
    0.7741    0.9721   -2.6393 O   0  0  0  0  0  0  0  0  0  0  0  0
    0.0260    0.6120   -0.3957 C   0  0  0  0  0  0  0  0  0  0  0  0
    1.2152    0.3056    0.1730 C   0  0  0  0  0  0  0  0  0  0  0  0
    2.5664    0.5688   -0.4733 C   0  0  0  0  0  0  0  0  0  0  0  0
    3.5844    0.4792    0.5401 O   0  0  0  0  0  0  0  0  0  0  0  0
    4.8800    0.8512    0.0551 C   0  0  0  0  0  0  0  0  0  0  0  0
    5.5155   -0.2395   -0.8210 C   0  0  0  0  0  0  0  0  0  0  0  0
    5.5402   -1.5420   -0.1482 N   0  0  0  0  0  0  0  0  0  0  0  0
    1.2437   -0.2544    1.4449 N   0  0  0  0  0  0  0  0  0  0  0  0
    0.1381   -0.3980    2.2641 C   0  0  0  0  0  0  0  0  0  0  0  0
    0.4216   -0.7896    3.6907 C   0  0  0  0  0  0  0  0  0  0  0  0
   -1.0912   -0.1443    1.7625 C   0  0  0  0  0  0  0  0  0  0  0  0
   -2.3230   -0.2445    2.5684 C   0  0  0  0  0  0  0  0  0  0  0  0
   -3.1257    0.6669    2.6897 O   0  0  0  0  0  0  0  0  0  0  0  0
   -2.4421   -1.4956    3.0798 O   0  0  0  0  0  0  0  0  0  0  0  0
   -3.6462   -1.7007    3.8182 C   0  0  0  0  0  0  0  0  0  0  0  0
   -1.2952    0.3241    0.3228 C   0  0  0  0  0  0  0  0  0  0  0  0
   -2.1337   -0.6934   -0.4645 C   0  0  0  0  0  0  0  0  0  0  0  0
   -1.6104   -1.9859   -0.6906 C   0  0  0  0  0  0  0  0  0  0  0  0
   -2.3311   -2.9458   -1.4030 C   0  0  0  0  0  0  0  0  0  0  0  0
   -3.5914   -2.6387   -1.9026 C   0  0  0  0  0  0  0  0  0  0  0  0
   -4.1308   -1.3718   -1.6867 C   0  0  0  0  0  0  0  0  0  0  0  0
   -3.4125   -0.4042   -0.9731 C   0  0  0  0  0  0  0  0  0  0  0  0
   -4.1784    1.1297   -0.7607 Cl  0  0  0  0  0  0  0  0  0  0  0  0
    0.6594    3.7418   -3.1089 H   0  0  0  0  0  0  0  0  0  0  0  0
   -0.5894    4.5127   -4.1109 H   0  0  0  0  0  0  0  0  0  0  0  0
   -0.6323    4.6525   -2.3371 H   0  0  0  0  0  0  0  0  0  0  0  0
   -1.0381    2.0425   -3.9213 H   0  0  0  0  0  0  0  0  0  0  0  0
   -2.3135    2.9908   -3.1595 H   0  0  0  0  0  0  0  0  0  0  0  0
    2.7539   -0.1907   -1.2383 H   0  0  0  0  0  0  0  0  0  0  0  0
    2.5954    1.5728   -0.9105 H   0  0  0  0  0  0  0  0  0  0  0  0
    5.5091    1.0163    0.9372 H   0  0  0  0  0  0  0  0  0  0  0  0
    4.8253    1.8036   -0.4848 H   0  0  0  0  0  0  0  0  0  0  0  0
    4.9557   -0.3505   -1.7547 H   0  0  0  0  0  0  0  0  0  0  0  0
    6.5368    0.0505   -1.0877 H   0  0  0  0  0  0  0  0  0  0  0  0
    4.5882   -1.7479    0.1644 H   0  0  0  0  0  0  0  0  0  0  0  0
    6.0807   -1.4620    0.7131 H   0  0  0  0  0  0  0  0  0  0  0  0
    2.1752   -0.2791    1.8666 H   0  0  0  0  0  0  0  0  0  0  0  0
    0.6400   -1.8611    3.7496 H   0  0  0  0  0  0  0  0  0  0  0  0
   -0.4064   -0.5663    4.3691 H   0  0  0  0  0  0  0  0  0  0  0  0
    1.2915   -0.2416    4.0712 H   0  0  0  0  0  0  0  0  0  0  0  0
   -3.6894   -1.0241    4.6774 H   0  0  0  0  0  0  0  0  0  0  0  0
   -3.6460   -2.7297    4.1886 H   0  0  0  0  0  0  0  0  0  0  0  0
   -4.5196   -1.5648    3.1729 H   0  0  0  0  0  0  0  0  0  0  0  0
   -1.8167    1.2850    0.3993 H   0  0  0  0  0  0  0  0  0  0  0  0
   -0.6274   -2.2569   -0.3061 H   0  0  0  0  0  0  0  0  0  0  0  0
   -1.9051   -3.9330   -1.5667 H   0  0  0  0  0  0  0  0  0  0  0  0
   -4.1550   -3.3839   -2.4582 H   0  0  0  0  0  0  0  0  0  0  0  0
   -5.1187   -1.1416   -2.0790 H   0  0  0  0  0  0  0  0  0  0  0  0
  1  2  1  0
  2  3  1  0
  3  4  1  0
  4  5  2  0
  4  6  1  0
  6  7  2  0
  7  8  1  0
  8  9  1  0
  9 10  1  0
 10 11  1  0
 11 12  1  0
  7 13  1  0
 13 14  1  0
 14 15  1  0
 14 16  2  0
 16 17  1  0
 17 18  2  0
 17 19  1  0
 19 20  1  0
 16 21  1  0
 21 22  1  0
 22 23  2  0
 23 24  1  0
 24 25  2  0
 25 26  1  0
 26 27  2  0
 27 28  1  0
 21  6  1  0
 27 22  1  0
  1 29  1  0
  1 30  1  0
  1 31  1  0
  2 32  1  0
  2 33  1  0
  8 34  1  0
  8 35  1  0
 10 36  1  0
 10 37  1  0
 11 38  1  0
 11 39  1  0
 12 40  1  0
 12 41  1  0
 13 42  1  0
 15 43  1  0
 15 44  1  0
 15 45  1  0
 20 46  1  0
 20 47  1  0
 20 48  1  0
 21 49  1  0
 23 50  1  0
 24 51  1  0
 25 52  1  0
 26 53  1  0
M  END
$$$$
decoy_albendazole
     RDKit          3D

 33 34  0  0  0  0  0  0  0  0999 V2000
   -4.9341   -1.2983   -1.7923 C   0  0  0  0  0  0  0  0  0  0  0  0
   -4.3741   -0.1421   -0.9764 C   0  0  0  0  0  0  0  0  0  0  0  0
   -4.3683   -0.4750    0.5140 C   0  0  0  0  0  0  0  0  0  0  0  0
   -3.7776    0.9319    1.5205 S   0  0  0  0  0  0  0  0  0  0  0  0
   -2.0418    0.9470    1.0915 C   0  0  0  0  0  0  0  0  0  0  0  0
   -1.4940    2.1193    0.5519 C   0  0  0  0  0  0  0  0  0  0  0  0
   -0.1410    2.2058    0.1988 C   0  0  0  0  0  0  0  0  0  0  0  0
    0.6325    1.0674    0.4214 C   0  0  0  0  0  0  0  0  0  0  0  0
    1.9568    0.7914    0.2069 N   0  0  0  0  0  0  0  0  0  0  0  0
    2.1996   -0.4954    0.6165 C   0  0  0  0  0  0  0  0  0  0  0  0
    3.4211   -1.1047    0.5492 N   0  0  0  0  0  0  0  0  0  0  0  0
    4.5367   -0.4926    0.0630 C   0  0  0  0  0  0  0  0  0  0  0  0
    4.5996    0.6519   -0.3703 O   0  0  0  0  0  0  0  0  0  0  0  0
    5.5848   -1.3532    0.1306 O   0  0  0  0  0  0  0  0  0  0  0  0
    6.8162   -0.8158   -0.3545 C   0  0  0  0  0  0  0  0  0  0  0  0
    1.1101   -1.0618    1.0801 N   0  0  0  0  0  0  0  0  0  0  0  0
    0.1266   -0.1067    0.9678 C   0  0  0  0  0  0  0  0  0  0  0  0
   -1.2300   -0.1740    1.3175 C   0  0  0  0  0  0  0  0  0  0  0  0
   -4.3312   -2.2019   -1.6565 H   0  0  0  0  0  0  0  0  0  0  0  0
   -5.9641   -1.5240   -1.4981 H   0  0  0  0  0  0  0  0  0  0  0  0
   -4.9328   -1.0460   -2.8574 H   0  0  0  0  0  0  0  0  0  0  0  0
   -3.3595    0.0729   -1.3304 H   0  0  0  0  0  0  0  0  0  0  0  0
   -4.9840    0.7496   -1.1650 H   0  0  0  0  0  0  0  0  0  0  0  0
   -3.7670   -1.3666    0.7171 H   0  0  0  0  0  0  0  0  0  0  0  0
   -5.3892   -0.6963    0.8443 H   0  0  0  0  0  0  0  0  0  0  0  0
   -2.1284    2.9907    0.3957 H   0  0  0  0  0  0  0  0  0  0  0  0
    0.2755    3.1146   -0.2218 H   0  0  0  0  0  0  0  0  0  0  0  0
    2.6581    1.4094   -0.1808 H   0  0  0  0  0  0  0  0  0  0  0  0
    3.4875   -2.0547    0.8814 H   0  0  0  0  0  0  0  0  0  0  0  0
    7.5852   -1.5866   -0.2533 H   0  0  0  0  0  0  0  0  0  0  0  0
    7.1161    0.0528    0.2401 H   0  0  0  0  0  0  0  0  0  0  0  0
    6.7284   -0.5510   -1.4128 H   0  0  0  0  0  0  0  0  0  0  0  0
   -1.6178   -1.0832    1.7614 H   0  0  0  0  0  0  0  0  0  0  0  0
  1  2  1  0
  2  3  1  0
  3  4  1  0
  4  5  1  0
  5  6  2  0
  6  7  1  0
  7  8  2  0
  8  9  1  0
  9 10  1  0
 10 11  1  0
 11 12  1  0
 12 13  2  0
 12 14  1  0
 14 15  1  0
 10 16  2  0
 16 17  1  0
 17 18  2  0
 18  5  1  0
 17  8  1  0
  1 19  1  0
  1 20  1  0
  1 21  1  0
  2 22  1  0
  2 23  1  0
  3 24  1  0
  3 25  1  0
  6 26  1  0
  7 27  1  0
  9 28  1  0
 11 29  1  0
 15 30  1  0
 15 31  1  0
 15 32  1  0
 18 33  1  0
M  END
$$$$
decoy_acetaminophen
     RDKit          3D

 20 20  0  0  0  0  0  0  0  0999 V2000
   -3.7053   -0.0519    0.3761 C   0  0  0  0  0  0  0  0  0  0  0  0
   -2.2928    0.2475    0.8139 C   0  0  0  0  0  0  0  0  0  0  0  0
   -2.0744    0.8083    1.8816 O   0  0  0  0  0  0  0  0  0  0  0  0
   -1.3565   -0.2049   -0.0981 N   0  0  0  0  0  0  0  0  0  0  0  0
    0.0472   -0.1003   -0.0121 C   0  0  0  0  0  0  0  0  0  0  0  0
    0.7944   -0.6484   -1.0639 C   0  0  0  0  0  0  0  0  0  0  0  0
    2.1901   -0.5853   -1.0545 C   0  0  0  0  0  0  0  0  0  0  0  0
    2.8424    0.0264    0.0066 C   0  0  0  0  0  0  0  0  0  0  0  0
    4.2040    0.0676   -0.0210 O   0  0  0  0  0  0  0  0  0  0  0  0
    2.1204    0.5764    1.0586 C   0  0  0  0  0  0  0  0  0  0  0  0
    0.7221    0.5121    1.0470 C   0  0  0  0  0  0  0  0  0  0  0  0
   -4.3923    0.6450    0.8649 H   0  0  0  0  0  0  0  0  0  0  0  0
   -3.8138    0.0689   -0.7056 H   0  0  0  0  0  0  0  0  0  0  0  0
   -3.9631   -1.0754    0.6601 H   0  0  0  0  0  0  0  0  0  0  0  0
   -1.7131   -0.6731   -0.9214 H   0  0  0  0  0  0  0  0  0  0  0  0
    0.3054   -1.1321   -1.9050 H   0  0  0  0  0  0  0  0  0  0  0  0
    2.7644   -1.0118   -1.8718 H   0  0  0  0  0  0  0  0  0  0  0  0
    4.5148    0.5206    0.7802 H   0  0  0  0  0  0  0  0  0  0  0  0
    2.6174    1.0581    1.8948 H   0  0  0  0  0  0  0  0  0  0  0  0
    0.1889    0.9523    1.8839 H   0  0  0  0  0  0  0  0  0  0  0  0
  1  2  1  0
  2  3  2  0
  2  4  1  0
  4  5  1  0
  5  6  2  0
  6  7  1  0
  7  8  2  0
  8  9  1  0
  8 10  1  0
 10 11  2  0
 11  5  1  0
  1 12  1  0
  1 13  1  0
  1 14  1  0
  4 15  1  0
  6 16  1  0
  7 17  1  0
  9 18  1  0
 10 19  1  0
 11 20  1  0
M  END
$$$$
