decoy_warfarin


 24 26  0  0  0  0  0  0  0  0999 V2000
   12.5257    9.9948    2.1102 C   0  0  0  0  0  0  0  0  0  0  0  0
   13.5861    9.1720    2.0102 C   0  0  0  0  0  0  0  0  0  0  0  0
   14.8146    9.6512    1.5959 O   0  0  0  0  0  0  0  0  0  0  0  0
   13.5002    7.7558    2.3751 C   0  0  0  0  0  0  0  0  0  0  0  0
   14.5217    6.8189    2.1667 C   0  0  0  0  0  0  0  0  0  0  0  0
   14.3611    5.4867    2.5676 C   0  0  0  0  0  0  0  0  0  0  0  0
   13.1750    5.0715    3.1712 C   0  0  0  0  0  0  0  0  0  0  0  0
   12.1417    5.9838    3.3597 C   0  0  0  0  0  0  0  0  0  0  0  0
   12.3172    7.3059    2.9509 C   0  0  0  0  0  0  0  0  0  0  0  0
   11.2222    8.1678    3.1134 O   0  0  0  0  0  0  0  0  0  0  0  0
   11.2362    9.4675    2.6265 C   0  0  0  0  0  0  0  0  0  0  0  0
   10.2119   10.1415    2.6495 O   0  0  0  0  0  0  0  0  0  0  0  0
   15.5127    9.1597    2.0607 H   0  0  0  0  0  0  0  0  0  0  0  0
   12.6033   11.4720    1.7251 C   0  0  0  0  0  0  0  0  0  0  0  0
   12.1282   11.7040    0.2896 C   0  0  0  0  0  0  0  0  0  0  0  0
   12.8944   11.3375   -0.8276 C   0  0  0  0  0  0  0  0  0  0  0  0
   12.4209   11.5612   -2.1226 C   0  0  0  0  0  0  0  0  0  0  0  0
   11.1748   12.1499   -2.3211 C   0  0  0  0  0  0  0  0  0  0  0  0
   10.3977   12.5127   -1.2247 C   0  0  0  0  0  0  0  0  0  0  0  0
   10.8687   12.2886    0.0702 C   0  0  0  0  0  0  0  0  0  0  0  0
   13.9513   12.1482    2.0437 C   0  0  0  0  0  0  0  0  0  0  0  0
   14.8799   14.1220    0.6575 C   0  0  0  0  0  0  0  0  0  0  0  0
   13.9100   13.6226    1.6959 C   0  0  0  0  0  0  0  0  0  0  0  0
   13.0935   14.3794    2.2231 O   0  0  0  0  0  0  0  0  0  0  0  0
 22 23  1  0  0  0
 23 24  2  0  0  0
 23 21  1  0  0  0
 21 14  1  0  0  0
 14 15  1  0  0  0
 15 16  2  0  0  0
 16 17  1  0  0  0
 17 18  2  0  0  0
 18 19  1  0  0  0
 19 20  2  0  0  0
 14  1  1  0  0  0
  1  2  2  0  0  0
  2  3  1  0  0  0
  2  4  1  0  0  0
  4  5  2  0  0  0
  5  6  1  0  0  0
  6  7  2  0  0  0
  7  8  1  0  0  0
  8  9  2  0  0  0
  9 10  1  0  0  0
 10 11  1  0  0  0
 11 12  2  0  0  0
 20 15  1  0  0  0
 11  1  1  0  0  0
  9  4  1  0  0  0
  3 13  1  0  0  0
M  END
> <minimizedAffinity>
-8.27547

$$$$
decoy_verapamil


 33 34  0  0  0  0  0  0  0  0999 V2000
   12.7613   10.7735    0.5785 C   0  0  0  0  0  0  0  0  0  0  0  0
   11.9483   10.0959    1.6978 C   0  0  0  0  0  0  0  0  0  0  0  0
   12.7808    9.1052    2.5319 C   0  0  0  0  0  0  0  0  0  0  0  0
   13.9804    8.6129    1.8414 N   0  0  0  0  0  0  0  0  0  0  0  0
   13.8922    7.1958    1.4976 C   0  0  0  0  0  0  0  0  0  0  0  0
   15.2196    8.9294    2.5784 C   0  0  0  0  0  0  0  0  0  0  0  0
   16.0929   10.0654    2.0144 C   0  0  0  0  0  0  0  0  0  0  0  0
   16.4820   13.2926    4.8718 C   0  0  0  0  0  0  0  0  0  0  0  0
   17.2527   12.1330    5.0020 C   0  0  0  0  0  0  0  0  0  0  0  0
   17.1264   11.0951    4.0761 C   0  0  0  0  0  0  0  0  0  0  0  0
   16.2368   11.2023    3.0020 C   0  0  0  0  0  0  0  0  0  0  0  0
   15.4632   12.3659    2.8695 C   0  0  0  0  0  0  0  0  0  0  0  0
   15.5799   13.4114    3.7954 C   0  0  0  0  0  0  0  0  0  0  0  0
   17.8242   14.7818    6.1732 C   0  0  0  0  0  0  0  0  0  0  0  0
   16.5397   14.3612    5.7326 O   0  0  0  0  0  0  0  0  0  0  0  0
   14.8621   14.5821    3.7387 O   0  0  0  0  0  0  0  0  0  0  0  0
   15.1898   15.5062    2.7132 C   0  0  0  0  0  0  0  0  0  0  0  0
   12.2285   12.1485    0.0335 C   0  0  0  0  0  0  0  0  0  0  0  0
   13.3674   13.1144   -0.4030 C   0  0  0  0  0  0  0  0  0  0  0  0
   13.1873   14.5117   -0.3755 C   0  0  0  0  0  0  0  0  0  0  0  0
   14.1896   15.3961   -0.8021 C   0  0  0  0  0  0  0  0  0  0  0  0
   15.3982   14.9142   -1.2992 C   0  0  0  0  0  0  0  0  0  0  0  0
   15.5821   13.5284   -1.3850 C   0  0  0  0  0  0  0  0  0  0  0  0
   14.5840   12.6473   -0.9369 C   0  0  0  0  0  0  0  0  0  0  0  0
   16.4349   15.6965   -1.7407 O   0  0  0  0  0  0  0  0  0  0  0  0
   16.2342   16.4210   -2.9470 C   0  0  0  0  0  0  0  0  0  0  0  0
   16.7852   13.0762   -1.8740 O   0  0  0  0  0  0  0  0  0  0  0  0
   16.7460   12.6752   -3.2414 C   0  0  0  0  0  0  0  0  0  0  0  0
   11.0895   11.9309   -1.0652 C   0  0  0  0  0  0  0  0  0  0  0  0
   10.0164   13.0271   -1.1257 C   0  0  0  0  0  0  0  0  0  0  0  0
   11.6198   11.7322   -2.5026 C   0  0  0  0  0  0  0  0  0  0  0  0
   11.5639   12.8288    1.1990 C   0  0  0  0  0  0  0  0  0  0  0  0
   11.0591   13.3521    2.1046 N   0  0  0  0  0  0  0  0  0  0  0  0
 14 15  1  0  0  0
 15  8  1  0  0  0
  8  9  2  0  0  0
  9 10  1  0  0  0
 10 11  2  0  0  0
 11  7  1  0  0  0
  7  6  1  0  0  0
  6  4  1  0  0  0
  4  5  1  0  0  0
  4  3  1  0  0  0
  3  2  1  0  0  0
  2  1  1  0  0  0
  1 18  1  0  0  0
 18 32  1  0  0  0
 32 33  3  0  0  0
 18 29  1  0  0  0
 29 30  1  0  0  0
 29 31  1  0  0  0
 18 19  1  0  0  0
 19 20  2  0  0  0
 20 21  1  0  0  0
 21 22  2  0  0  0
 22 25  1  0  0  0
 25 26  1  0  0  0
 22 23  1  0  0  0
 23 27  1  0  0  0
 27 28  1  0  0  0
 23 24  2  0  0  0
 11 12  1  0  0  0
 12 13  2  0  0  0
 13 16  1  0  0  0
 16 17  1  0  0  0
 13  8  1  0  0  0
 24 19  1  0  0  0
M  END
> <minimizedAffinity>
-5.67783

$$$$
decoy_trimethoprim


 25 26  0  0  0  0  0  0  0  0999 V2000
   12.6195   12.3929    0.3278 C   0  0  0  0  0  0  0  0  0  0  0  0
   12.4520   12.0674   -1.1270 C   0  0  0  0  0  0  0  0  0  0  0  0
   13.5496   11.8208   -1.9285 C   0  0  0  0  0  0  0  0  0  0  0  0
   13.4760   11.5439   -3.2426 N   0  0  0  0  0  0  0  0  0  0  0  0
   12.2520   11.5215   -3.7695 C   0  0  0  0  0  0  0  0  0  0  0  0
   12.1475   11.2653   -5.1225 N   0  0  0  0  0  0  0  0  0  0  0  0
   11.1248   11.7695   -3.0972 N   0  0  0  0  0  0  0  0  0  0  0  0
   11.2372   12.0247   -1.7859 C   0  0  0  0  0  0  0  0  0  0  0  0
   10.0296   12.2822   -1.1325 N   0  0  0  0  0  0  0  0  0  0  0  0
   13.0142   11.5193   -5.5768 H   0  0  0  0  0  0  0  0  0  0  0  0
   11.3001   11.6847   -5.4793 H   0  0  0  0  0  0  0  0  0  0  0  0
    9.8894   11.6552   -0.3471 H   0  0  0  0  0  0  0  0  0  0  0  0
    9.2944   12.1585   -1.8277 H   0  0  0  0  0  0  0  0  0  0  0  0
   11.3718    9.5801    2.5770 C   0  0  0  0  0  0  0  0  0  0  0  0
   11.3872   10.7011    1.7480 C   0  0  0  0  0  0  0  0  0  0  0  0
   12.5975   11.1808    1.2316 C   0  0  0  0  0  0  0  0  0  0  0  0
   13.7957   10.5231    1.5682 C   0  0  0  0  0  0  0  0  0  0  0  0
   13.7925    9.4082    2.4141 C   0  0  0  0  0  0  0  0  0  0  0  0
   12.5718    8.9587    2.9420 C   0  0  0  0  0  0  0  0  0  0  0  0
    9.6593   10.1123    4.0291 C   0  0  0  0  0  0  0  0  0  0  0  0
   10.1504    9.1859    3.0596 O   0  0  0  0  0  0  0  0  0  0  0  0
   14.9126    8.7191    2.8018 O   0  0  0  0  0  0  0  0  0  0  0  0
   16.0911    9.4793    3.0351 C   0  0  0  0  0  0  0  0  0  0  0  0
   12.5587    7.8734    3.7862 O   0  0  0  0  0  0  0  0  0  0  0  0
   12.2711    6.6905    3.0392 C   0  0  0  0  0  0  0  0  0  0  0  0
 20 21  1  0  0  0
 21 14  1  0  0  0
 14 15  2  0  0  0
 15 16  1  0  0  0
 16  1  1  0  0  0
  1  2  1  0  0  0
  2  3  2  0  0  0
  3  4  1  0  0  0
  4  5  2  0  0  0
  5  6  1  0  0  0
  5  7  1  0  0  0
  7  8  2  0  0  0
  8  9  1  0  0  0
 16 17  2  0  0  0
 17 18  1  0  0  0
 18 22  1  0  0  0
 22 23  1  0  0  0
 18 19  2  0  0  0
 19 24  1  0  0  0
 24 25  1  0  0  0
 19 14  1  0  0  0
  8  2  1  0  0  0
  6 10  1  0  0  0
  6 11  1  0  0  0
  9 12  1  0  0  0
  9 13  1  0  0  0
M  END
> <minimizedAffinity>
-6.19795

$$$$
decoy_tolbutamide


 20 20  0  0  0  0  0  0  0  0999 V2000
   11.4646    8.8635    2.8889 N   0  0  0  0  0  0  0  0  0  0  0  0
   12.1441    9.8824    2.2859 C   0  0  0  0  0  0  0  0  0  0  0  0
   13.2903    9.7921    1.8805 O   0  0  0  0  0  0  0  0  0  0  0  0
   11.3765   11.0271    2.1788 N   0  0  0  0  0  0  0  0  0  0  0  0
   10.5769    9.0650    3.3200 H   0  0  0  0  0  0  0  0  0  0  0  0
   10.4030   11.0431    2.4457 H   0  0  0  0  0  0  0  0  0  0  0  0
   11.8961   12.4692    1.5402 S   0  0  0  0  0  0  0  0  0  0  0  0
   13.1823   12.8150    2.1018 O   0  0  0  0  0  0  0  0  0  0  0  0
   10.7672   13.3687    1.6804 O   0  0  0  0  0  0  0  0  0  0  0  0
   12.0814   12.1206   -0.1892 C   0  0  0  0  0  0  0  0  0  0  0  0
   10.9490   11.9607   -0.9900 C   0  0  0  0  0  0  0  0  0  0  0  0
   11.0994   11.6541   -2.3435 C   0  0  0  0  0  0  0  0  0  0  0  0
   12.3764   11.5019   -2.9004 C   0  0  0  0  0  0  0  0  0  0  0  0
   12.5315   11.1362   -4.3476 C   0  0  0  0  0  0  0  0  0  0  0  0
   13.5038   11.6328   -2.0781 C   0  0  0  0  0  0  0  0  0  0  0  0
   13.3602   11.9419   -0.7242 C   0  0  0  0  0  0  0  0  0  0  0  0
   12.0995    7.5962    3.1850 C   0  0  0  0  0  0  0  0  0  0  0  0
   11.8273    6.5622    2.0945 C   0  0  0  0  0  0  0  0  0  0  0  0
   14.3404    6.4035    2.1747 C   0  0  0  0  0  0  0  0  0  0  0  0
   13.0985    6.2293    1.3154 C   0  0  0  0  0  0  0  0  0  0  0  0
 19 20  1  0  0  0
 20 18  1  0  0  0
 18 17  1  0  0  0
 17  1  1  0  0  0
  1  2  1  0  0  0
  2  3  2  0  0  0
  2  4  1  0  0  0
  4  7  1  0  0  0
  7  8  2  0  0  0
  7  9  2  0  0  0
  7 10  1  0  0  0
 10 11  2  0  0  0
 11 12  1  0  0  0
 12 13  2  0  0  0
 13 14  1  0  0  0
 13 15  1  0  0  0
 15 16  2  0  0  0
 16 10  1  0  0  0
  1  5  1  0  0  0
  4  6  1  0  0  0
M  END
> <minimizedAffinity>
-5.77990

$$$$
decoy_theophylline


 14 15  0  0  0  0  0  0  0  0999 V2000
   26.6087    3.7436   -3.5868 C   0  0  0  0  0  0  0  0  0  0  0  0
   25.7550    3.7409   -4.7582 N   0  0  0  0  0  0  0  0  0  0  0  0
   24.4046    3.4261   -4.5878 C   0  0  0  0  0  0  0  0  0  0  0  0
   23.8734    3.1481   -3.5177 O   0  0  0  0  0  0  0  0  0  0  0  0
   23.6806    3.4581   -5.8052 C   0  0  0  0  0  0  0  0  0  0  0  0
   22.3634    3.2161   -6.0630 N   0  0  0  0  0  0  0  0  0  0  0  0
   22.1906    3.3864   -7.4126 C   0  0  0  0  0  0  0  0  0  0  0  0
   23.3173    3.7193   -8.0116 N   0  0  0  0  0  0  0  0  0  0  0  0
   24.2363    3.7616   -7.0075 C   0  0  0  0  0  0  0  0  0  0  0  0
   25.5705    4.0653   -7.1269 N   0  0  0  0  0  0  0  0  0  0  0  0
   26.1307    4.3847   -8.4271 C   0  0  0  0  0  0  0  0  0  0  0  0
   26.3760    4.0622   -5.9854 C   0  0  0  0  0  0  0  0  0  0  0  0
   27.5807    4.3275   -6.0359 O   0  0  0  0  0  0  0  0  0  0  0  0
   21.6568    2.9609   -5.3848 H   0  0  0  0  0  0  0  0  0  0  0  0
  1  2  1  0  0  0
  2  3  1  0  0  0
  3  4  2  0  0  0
  3  5  1  0  0  0
  5  6  1  0  0  0
  6  7  1  0  0  0
  7  8  2  0  0  0
  8  9  1  0  0  0
  9 10  1  0  0  0
 10 11  1  0  0  0
 10 12  1  0  0  0
 12 13  2  0  0  0
 12  2  1  0  0  0
  9  5  2  0  0  0
  6 14  1  0  0  0
M  END
> <minimizedAffinity>
-5.32057

$$$$
decoy_sertraline


 21 23  0  0  0  0  0  0  0  0999 V2000
   13.9692   12.8425   -0.5852 C   0  0  0  0  0  0  0  0  0  0  0  0
   15.0272   12.1902    0.3235 C   0  0  0  0  0  0  0  0  0  0  0  0
   14.5835   12.2052    1.7816 C   0  0  0  0  0  0  0  0  0  0  0  0
   13.2968   11.3896    1.9890 C   0  0  0  0  0  0  0  0  0  0  0  0
   12.2320   11.7397    0.9601 C   0  0  0  0  0  0  0  0  0  0  0  0
   10.8943   11.3892    1.2306 C   0  0  0  0  0  0  0  0  0  0  0  0
    9.8777   11.6878    0.3261 C   0  0  0  0  0  0  0  0  0  0  0  0
   10.1800   12.3468   -0.8588 C   0  0  0  0  0  0  0  0  0  0  0  0
   11.4997   12.7004   -1.1404 C   0  0  0  0  0  0  0  0  0  0  0  0
   12.5484   12.3900   -0.2520 C   0  0  0  0  0  0  0  0  0  0  0  0
   13.5996    9.8945    2.0986 C   0  0  0  0  0  0  0  0  0  0  0  0
   14.8873    9.3997    2.3562 C   0  0  0  0  0  0  0  0  0  0  0  0
   15.1178    8.0251    2.4640 C   0  0  0  0  0  0  0  0  0  0  0  0
   14.0642    7.1200    2.3215 C   0  0  0  0  0  0  0  0  0  0  0  0
   14.4226    5.4366    2.4687 Cl  0  0  0  0  0  0  0  0  0  0  0  0
   12.7743    7.5947    2.0709 C   0  0  0  0  0  0  0  0  0  0  0  0
   11.4174    6.5401    1.8873 Cl  0  0  0  0  0  0  0  0  0  0  0  0
   12.5464    8.9719    1.9624 C   0  0  0  0  0  0  0  0  0  0  0  0
   15.6670   12.8232   -2.3506 C   0  0  0  0  0  0  0  0  0  0  0  0
   14.2745   12.5921   -2.0033 N   0  0  0  0  0  0  0  0  0  0  0  0
   14.0051   11.6396   -2.2439 H   0  0  0  0  0  0  0  0  0  0  0  0
 19 20  1  0  0  0
 20  1  1  0  0  0
  1  2  1  0  0  0
  2  3  1  0  0  0
  3  4  1  0  0  0
  4 11  1  0  0  0
 11 12  2  0  0  0
 12 13  1  0  0  0
 13 14  2  0  0  0
 14 15  1  0  0  0
 14 16  1  0  0  0
 16 17  1  0  0  0
 16 18  2  0  0  0
  4  5  1  0  0  0
  5  6  2  0  0  0
  6  7  1  0  0  0
  7  8  2  0  0  0
  8  9  1  0  0  0
  9 10  2  0  0  0
 10  1  1  0  0  0
 18 11  1  0  0  0
 10  5  1  0  0  0
 20 21  1  0  0  0
M  END
> <minimizedAffinity>
-7.34287

$$$$
decoy_salbutamol


 21 21  0  0  0  0  0  0  0  0999 V2000
   12.4235   10.6852    1.5830 C   0  0  0  0  0  0  0  0  0  0  0  0
   11.1973   10.9182    2.2182 C   0  0  0  0  0  0  0  0  0  0  0  0
   10.1269   11.4524    1.5047 C   0  0  0  0  0  0  0  0  0  0  0  0
   10.2684   11.7605    0.1522 C   0  0  0  0  0  0  0  0  0  0  0  0
    9.1568   12.2871   -0.4452 O   0  0  0  0  0  0  0  0  0  0  0  0
   11.4774   11.5353   -0.5214 C   0  0  0  0  0  0  0  0  0  0  0  0
   12.5492   10.9999    0.2190 C   0  0  0  0  0  0  0  0  0  0  0  0
    9.3522   12.5485   -1.3560 H   0  0  0  0  0  0  0  0  0  0  0  0
   13.6043   10.1113    2.3471 C   0  0  0  0  0  0  0  0  0  0  0  0
   14.7428   10.1466    1.4801 O   0  0  0  0  0  0  0  0  0  0  0  0
   14.7230   11.0112    1.0349 H   0  0  0  0  0  0  0  0  0  0  0  0
   13.3288    8.6639    2.8279 C   0  0  0  0  0  0  0  0  0  0  0  0
   14.0475    7.5657    2.1485 N   0  0  0  0  0  0  0  0  0  0  0  0
   14.9397    7.4602    2.6337 H   0  0  0  0  0  0  0  0  0  0  0  0
   13.1822    5.9687    0.5611 C   0  0  0  0  0  0  0  0  0  0  0  0
   13.4057    6.2382    2.0687 C   0  0  0  0  0  0  0  0  0  0  0  0
   14.2660    5.0923    2.6235 C   0  0  0  0  0  0  0  0  0  0  0  0
   12.0199    6.2464    2.7326 C   0  0  0  0  0  0  0  0  0  0  0  0
   11.6392   11.8624   -1.9848 C   0  0  0  0  0  0  0  0  0  0  0  0
   10.8807   12.9973   -2.3823 O   0  0  0  0  0  0  0  0  0  0  0  0
   11.0442   13.1294   -3.3310 H   0  0  0  0  0  0  0  0  0  0  0  0
 15 16  1  0  0  0
 16 17  1  0  0  0
 16 18  1  0  0  0
 16 13  1  0  0  0
 13 12  1  0  0  0
 12  9  1  0  0  0
  9 10  1  0  0  0
  9  1  1  0  0  0
  1  2  2  0  0  0
  2  3  1  0  0  0
  3  4  2  0  0  0
  4  5  1  0  0  0
  4  6  1  0  0  0
  6 19  1  0  0  0
 19 20  1  0  0  0
  6  7  2  0  0  0
  7  1  1  0  0  0
 13 14  1  0  0  0
 10 11  1  0  0  0
  5  8  1  0  0  0
 20 21  1  0  0  0
M  END
> <minimizedAffinity>
-6.78447

$$$$
decoy_pyrimethamine


 21 22  0  0  0  0  0  0  0  0999 V2000
   13.0605   11.4945    1.6428 C   0  0  0  0  0  0  0  0  0  0  0  0
   12.6670   12.7806    1.4915 N   0  0  0  0  0  0  0  0  0  0  0  0
   11.3772   13.0590    1.6762 C   0  0  0  0  0  0  0  0  0  0  0  0
   10.9792   14.3672    1.4948 N   0  0  0  0  0  0  0  0  0  0  0  0
   10.4394   12.1640    1.9770 N   0  0  0  0  0  0  0  0  0  0  0  0
   10.8449   10.8974    2.1464 C   0  0  0  0  0  0  0  0  0  0  0  0
    9.8191    9.9925    2.4445 N   0  0  0  0  0  0  0  0  0  0  0  0
   12.1683   10.4809    1.9940 C   0  0  0  0  0  0  0  0  0  0  0  0
   10.0058   14.3906    1.2263 H   0  0  0  0  0  0  0  0  0  0  0  0
   11.6381   14.8374    0.8900 H   0  0  0  0  0  0  0  0  0  0  0  0
    8.9665   10.5302    2.5776 H   0  0  0  0  0  0  0  0  0  0  0  0
   10.0441    9.4184    3.2493 H   0  0  0  0  0  0  0  0  0  0  0  0
   12.5779    9.0823    2.1894 C   0  0  0  0  0  0  0  0  0  0  0  0
   12.3782    8.4394    3.4229 C   0  0  0  0  0  0  0  0  0  0  0  0
   12.7682    7.1098    3.6079 C   0  0  0  0  0  0  0  0  0  0  0  0
   13.3584    6.4093    2.5587 C   0  0  0  0  0  0  0  0  0  0  0  0
   13.8375    4.7731    2.7861 Cl  0  0  0  0  0  0  0  0  0  0  0  0
   13.5601    7.0254    1.3266 C   0  0  0  0  0  0  0  0  0  0  0  0
   13.1704    8.3551    1.1436 C   0  0  0  0  0  0  0  0  0  0  0  0
   15.4258   11.4917    2.6264 C   0  0  0  0  0  0  0  0  0  0  0  0
   14.5318   11.2021    1.4254 C   0  0  0  0  0  0  0  0  0  0  0  0
 20 21  1  0  0  0
 21  1  1  0  0  0
  1  2  2  0  0  0
  2  3  1  0  0  0
  3  4  1  0  0  0
  3  5  2  0  0  0
  5  6  1  0  0  0
  6  7  1  0  0  0
  6  8  2  0  0  0
  8 13  1  0  0  0
 13 14  2  0  0  0
 14 15  1  0  0  0
 15 16  2  0  0  0
 16 17  1  0  0  0
 16 18  1  0  0  0
 18 19  2  0  0  0
  8  1  1  0  0  0
 19 13  1  0  0  0
  4  9  1  0  0  0
  4 10  1  0  0  0
  7 11  1  0  0  0
  7 12  1  0  0  0
M  END
> <minimizedAffinity>
-6.72495

$$$$
decoy_propranolol


 21 22  0  0  0  0  0  0  0  0999 V2000
   11.5766   10.5593    1.2981 O   0  0  0  0  0  0  0  0  0  0  0  0
   12.8594   10.2454    1.6802 C   0  0  0  0  0  0  0  0  0  0  0  0
   13.8507   11.1999    1.9319 C   0  0  0  0  0  0  0  0  0  0  0  0
   15.1264   10.8016    2.3268 C   0  0  0  0  0  0  0  0  0  0  0  0
   15.4211    9.4486    2.4786 C   0  0  0  0  0  0  0  0  0  0  0  0
   14.4442    8.4715    2.2417 C   0  0  0  0  0  0  0  0  0  0  0  0
   14.7451    7.1082    2.4006 C   0  0  0  0  0  0  0  0  0  0  0  0
   13.7799    6.1290    2.1676 C   0  0  0  0  0  0  0  0  0  0  0  0
   12.5008    6.4997    1.7721 C   0  0  0  0  0  0  0  0  0  0  0  0
   12.1871    7.8507    1.6103 C   0  0  0  0  0  0  0  0  0  0  0  0
   13.1439    8.8645    1.8398 C   0  0  0  0  0  0  0  0  0  0  0  0
   10.8081   11.3842    2.1795 C   0  0  0  0  0  0  0  0  0  0  0  0
    9.9709   12.3577    1.3379 C   0  0  0  0  0  0  0  0  0  0  0  0
    9.1982   11.6202    0.3764 O   0  0  0  0  0  0  0  0  0  0  0  0
    9.8426   11.1084   -0.1495 H   0  0  0  0  0  0  0  0  0  0  0  0
   10.8475   13.3957    0.6013 C   0  0  0  0  0  0  0  0  0  0  0  0
   11.4763   14.3507    1.5247 N   0  0  0  0  0  0  0  0  0  0  0  0
   11.3722   13.9965    2.4802 H   0  0  0  0  0  0  0  0  0  0  0  0
   13.2229   16.1360    1.3897 C   0  0  0  0  0  0  0  0  0  0  0  0
   12.8782   14.6552    1.2328 C   0  0  0  0  0  0  0  0  0  0  0  0
   13.1623   14.2074   -0.2030 C   0  0  0  0  0  0  0  0  0  0  0  0
 19 20  1  0  0  0
 20 21  1  0  0  0
 20 17  1  0  0  0
 17 16  1  0  0  0
 16 13  1  0  0  0
 13 14  1  0  0  0
 13 12  1  0  0  0
 12  1  1  0  0  0
  1  2  1  0  0  0
  2  3  2  0  0  0
  3  4  1  0  0  0
  4  5  2  0  0  0
  5  6  1  0  0  0
  6  7  2  0  0  0
  7  8  1  0  0  0
  8  9  2  0  0  0
  9 10  1  0  0  0
 10 11  2  0  0  0
 11  2  1  0  0  0
 11  6  1  0  0  0
 17 18  1  0  0  0
 14 15  1  0  0  0
M  END
> <minimizedAffinity>
-6.43267

$$$$
decoy_procainamide


 20 20  0  0  0  0  0  0  0  0999 V2000
   11.9219   10.2634    1.7594 N   0  0  0  0  0  0  0  0  0  0  0  0
   11.5052    9.2285    2.5707 C   0  0  0  0  0  0  0  0  0  0  0  0
   10.5469    9.3045    3.3302 O   0  0  0  0  0  0  0  0  0  0  0  0
   12.8371   10.2101    1.3345 H   0  0  0  0  0  0  0  0  0  0  0  0
   12.3131    7.9793    2.5117 C   0  0  0  0  0  0  0  0  0  0  0  0
   13.6538    7.9782    2.1126 C   0  0  0  0  0  0  0  0  0  0  0  0
   14.3702    6.7766    2.0742 C   0  0  0  0  0  0  0  0  0  0  0  0
   13.7508    5.5624    2.3838 C   0  0  0  0  0  0  0  0  0  0  0  0
   14.5051    4.3872    2.4612 N   0  0  0  0  0  0  0  0  0  0  0  0
   12.4249    5.5779    2.8233 C   0  0  0  0  0  0  0  0  0  0  0  0
   11.6995    6.7726    2.8620 C   0  0  0  0  0  0  0  0  0  0  0  0
   13.9524    3.5385    2.3863 H   0  0  0  0  0  0  0  0  0  0  0  0
   15.3139    4.3731    1.8480 H   0  0  0  0  0  0  0  0  0  0  0  0
   11.2798   11.5682    1.8033 C   0  0  0  0  0  0  0  0  0  0  0  0
   12.2553   12.7244    1.5045 C   0  0  0  0  0  0  0  0  0  0  0  0
   12.0318   13.3567    0.1964 N   0  0  0  0  0  0  0  0  0  0  0  0
   14.3320   12.4320   -0.4402 C   0  0  0  0  0  0  0  0  0  0  0  0
   13.1812   13.3980   -0.7114 C   0  0  0  0  0  0  0  0  0  0  0  0
   10.7702   12.9520   -0.4321 C   0  0  0  0  0  0  0  0  0  0  0  0
   10.8643   12.2877   -1.7996 C   0  0  0  0  0  0  0  0  0  0  0  0
 17 18  1  0  0  0
 18 16  1  0  0  0
 16 19  1  0  0  0
 19 20  1  0  0  0
 16 15  1  0  0  0
 15 14  1  0  0  0
 14  1  1  0  0  0
  1  2  1  0  0  0
  2  3  2  0  0  0
  2  5  1  0  0  0
  5  6  2  0  0  0
  6  7  1  0  0  0
  7  8  2  0  0  0
  8  9  1  0  0  0
  8 10  1  0  0  0
 10 11  2  0  0  0
 11  5  1  0  0  0
  1  4  1  0  0  0
  9 12  1  0  0  0
  9 13  1  0  0  0
M  END
> <minimizedAffinity>
-5.90902

$$$$
decoy_phenytoin


 21 23  0  0  0  0  0  0  0  0999 V2000
   10.8936   12.2839   -2.5272 O   0  0  0  0  0  0  0  0  0  0  0  0
   11.3419   12.4135   -1.4025 C   0  0  0  0  0  0  0  0  0  0  0  0
   10.9914   13.3628   -0.5124 N   0  0  0  0  0  0  0  0  0  0  0  0
   11.5877   13.1337    0.6903 C   0  0  0  0  0  0  0  0  0  0  0  0
   11.3676   13.8068    1.6902 O   0  0  0  0  0  0  0  0  0  0  0  0
   12.5391   11.9006    0.5641 C   0  0  0  0  0  0  0  0  0  0  0  0
   12.2742   11.5910   -0.8334 N   0  0  0  0  0  0  0  0  0  0  0  0
   10.2969   14.0688   -0.6826 H   0  0  0  0  0  0  0  0  0  0  0  0
   12.5655   10.7422   -1.2951 H   0  0  0  0  0  0  0  0  0  0  0  0
   12.1339   10.6817    1.4062 C   0  0  0  0  0  0  0  0  0  0  0  0
   12.9495    9.5298    1.3921 C   0  0  0  0  0  0  0  0  0  0  0  0
   12.6127    8.3942    2.1315 C   0  0  0  0  0  0  0  0  0  0  0  0
   11.4529    8.3833    2.8989 C   0  0  0  0  0  0  0  0  0  0  0  0
   10.6321    9.5071    2.9282 C   0  0  0  0  0  0  0  0  0  0  0  0
   10.9672   10.6458    2.1891 C   0  0  0  0  0  0  0  0  0  0  0  0
   13.9891   12.3439    0.8070 C   0  0  0  0  0  0  0  0  0  0  0  0
   14.4832   12.6501    2.0883 C   0  0  0  0  0  0  0  0  0  0  0  0
   15.8097   13.0511    2.2695 C   0  0  0  0  0  0  0  0  0  0  0  0
   16.6668   13.1510    1.1771 C   0  0  0  0  0  0  0  0  0  0  0  0
   16.2013   12.8478   -0.0986 C   0  0  0  0  0  0  0  0  0  0  0  0
   14.8766   12.4469   -0.2825 C   0  0  0  0  0  0  0  0  0  0  0  0
  1  2  2  0  0  0
  2  3  1  0  0  0
  3  4  1  0  0  0
  4  5  2  0  0  0
  4  6  1  0  0  0
  6 10  1  0  0  0
 10 11  2  0  0  0
 11 12  1  0  0  0
 12 13  2  0  0  0
 13 14  1  0  0  0
 14 15  2  0  0  0
  6 16  1  0  0  0
 16 17  2  0  0  0
 17 18  1  0  0  0
 18 19  2  0  0  0
 19 20  1  0  0  0
 20 21  2  0  0  0
  6  7  1  0  0  0
  7  2  1  0  0  0
 15 10  1  0  0  0
 21 16  1  0  0  0
  3  8  1  0  0  0
  7  9  1  0  0  0
M  END
> <minimizedAffinity>
-6.72128

$$$$
decoy_omeprazole


 25 27  0  0  0  0  0  0  0  0999 V2000
   15.3428   12.5402    2.8386 S   0  0  0  0  0  0  0  0  0  0  0  0
   14.9545   13.7783    3.5965 O   0  0  0  0  0  0  0  0  0  0  0  0
   11.4992   11.9538   -2.1158 C   0  0  0  0  0  0  0  0  0  0  0  0
   10.5324   12.4556   -1.2347 C   0  0  0  0  0  0  0  0  0  0  0  0
   10.8535   12.7906    0.0885 C   0  0  0  0  0  0  0  0  0  0  0  0
   12.1752   12.5924    0.4852 C   0  0  0  0  0  0  0  0  0  0  0  0
   12.8285   12.8078    1.6694 N   0  0  0  0  0  0  0  0  0  0  0  0
   14.1316   12.4244    1.5093 C   0  0  0  0  0  0  0  0  0  0  0  0
   14.3669   11.9902    0.2897 N   0  0  0  0  0  0  0  0  0  0  0  0
   13.1591   12.0911   -0.3613 C   0  0  0  0  0  0  0  0  0  0  0  0
   12.8217   11.7708   -1.6833 C   0  0  0  0  0  0  0  0  0  0  0  0
   12.4450   13.1909    2.5229 H   0  0  0  0  0  0  0  0  0  0  0  0
   12.3329   10.9114   -4.0873 C   0  0  0  0  0  0  0  0  0  0  0  0
   11.2840   11.6024   -3.4230 O   0  0  0  0  0  0  0  0  0  0  0  0
   16.7862   12.8920    1.7855 C   0  0  0  0  0  0  0  0  0  0  0  0
   17.8366   11.8118    1.8905 C   0  0  0  0  0  0  0  0  0  0  0  0
   18.1066   11.3796    3.1520 N   0  0  0  0  0  0  0  0  0  0  0  0
   19.0558   10.4334    3.3150 C   0  0  0  0  0  0  0  0  0  0  0  0
   19.7407    9.8301    2.2755 C   0  0  0  0  0  0  0  0  0  0  0  0
   20.7908    8.8056    2.5696 C   0  0  0  0  0  0  0  0  0  0  0  0
   19.3624   10.1999    0.9823 C   0  0  0  0  0  0  0  0  0  0  0  0
   18.4301   11.2282    0.7606 C   0  0  0  0  0  0  0  0  0  0  0  0
   18.0937   11.6875   -0.6307 C   0  0  0  0  0  0  0  0  0  0  0  0
   19.9616    9.5879   -0.0934 O   0  0  0  0  0  0  0  0  0  0  0  0
   21.1637   10.2827   -0.4402 C   0  0  0  0  0  0  0  0  0  0  0  0
 13 14  1  0  0  0
 14  3  1  0  0  0
  3  4  2  0  0  0
  4  5  1  0  0  0
  5  6  2  0  0  0
  6  7  1  0  0  0
  7  8  1  0  0  0
  8  1  1  0  0  0
  1  2  2  0  0  0
  1 15  1  0  0  0
 15 16  1  0  0  0
 16 17  2  0  0  0
 17 18  1  0  0  0
 18 19  2  0  0  0
 19 20  1  0  0  0
 19 21  1  0  0  0
 21 24  1  0  0  0
 24 25  1  0  0  0
 21 22  2  0  0  0
 22 23  1  0  0  0
  8  9  2  0  0  0
  9 10  1  0  0  0
 10 11  2  0  0  0
 11  3  1  0  0  0
 10  6  1  0  0  0
 22 16  1  0  0  0
  7 12  1  0  0  0
M  END
> <minimizedAffinity>
-6.22095

$$$$
decoy_nicotine


 12 13  0  0  0  0  0  0  0  0999 V2000
   12.2523   11.0484    1.7679 C   0  0  0  0  0  0  0  0  0  0  0  0
   13.5406   10.3826    1.6208 N   0  0  0  0  0  0  0  0  0  0  0  0
   14.6606   11.2993    1.8307 C   0  0  0  0  0  0  0  0  0  0  0  0
   15.8307   10.3431    1.9494 C   0  0  0  0  0  0  0  0  0  0  0  0
   15.2614    9.1505    2.7075 C   0  0  0  0  0  0  0  0  0  0  0  0
   13.7339    9.2832    2.5849 C   0  0  0  0  0  0  0  0  0  0  0  0
   13.0853    7.9885    2.1642 C   0  0  0  0  0  0  0  0  0  0  0  0
   13.6277    7.2123    1.1343 C   0  0  0  0  0  0  0  0  0  0  0  0
   12.9960    6.0337    0.7463 C   0  0  0  0  0  0  0  0  0  0  0  0
   11.8311    5.6674    1.3987 C   0  0  0  0  0  0  0  0  0  0  0  0
   11.2700    6.3878    2.3913 N   0  0  0  0  0  0  0  0  0  0  0  0
   11.9089    7.5269    2.7508 C   0  0  0  0  0  0  0  0  0  0  0  0
  1  2  1  0  0  0
  2  3  1  0  0  0
  3  4  1  0  0  0
  4  5  1  0  0  0
  5  6  1  0  0  0
  6  7  1  0  0  0
  7  8  2  0  0  0
  8  9  1  0  0  0
  9 10  2  0  0  0
 10 11  1  0  0  0
 11 12  2  0  0  0
  6  2  1  0  0  0
 12  7  1  0  0  0
M  END
> <minimizedAffinity>
-5.25835

$$$$
decoy_naproxen


 18 19  0  0  0  0  0  0  0  0999 V2000
   13.1131    6.7524    2.6126 C   0  0  0  0  0  0  0  0  0  0  0  0
   14.0030    7.3756    1.7410 C   0  0  0  0  0  0  0  0  0  0  0  0
   13.7534    8.6786    1.2960 C   0  0  0  0  0  0  0  0  0  0  0  0
   12.6113    9.3790    1.7143 C   0  0  0  0  0  0  0  0  0  0  0  0
   12.3486   10.6884    1.2747 C   0  0  0  0  0  0  0  0  0  0  0  0
   11.2040   11.3849    1.6955 C   0  0  0  0  0  0  0  0  0  0  0  0
   10.3179   10.7492    2.5748 C   0  0  0  0  0  0  0  0  0  0  0  0
   10.5670    9.4486    3.0193 C   0  0  0  0  0  0  0  0  0  0  0  0
   11.7083    8.7512    2.5973 C   0  0  0  0  0  0  0  0  0  0  0  0
   11.9732    7.4427    3.0349 C   0  0  0  0  0  0  0  0  0  0  0  0
   14.4417    4.7924    2.8290 C   0  0  0  0  0  0  0  0  0  0  0  0
   13.2368    5.4885    3.1215 O   0  0  0  0  0  0  0  0  0  0  0  0
   10.9510   12.7979    1.2015 C   0  0  0  0  0  0  0  0  0  0  0  0
   12.1914   13.6832    1.3412 C   0  0  0  0  0  0  0  0  0  0  0  0
   10.4515   12.8120   -0.2313 C   0  0  0  0  0  0  0  0  0  0  0  0
   11.0486   13.2197   -1.2153 O   0  0  0  0  0  0  0  0  0  0  0  0
    9.2141   12.2875   -0.3582 O   0  0  0  0  0  0  0  0  0  0  0  0
    9.0419   12.3180   -1.3225 H   0  0  0  0  0  0  0  0  0  0  0  0
 11 12  1  0  0  0
 12  1  1  0  0  0
  1  2  2  0  0  0
  2  3  1  0  0  0
  3  4  2  0  0  0
  4  5  1  0  0  0
  5  6  2  0  0  0
  6 13  1  0  0  0
 13 14  1  0  0  0
 13 15  1  0  0  0
 15 16  2  0  0  0
 15 17  1  0  0  0
  6  7  1  0  0  0
  7  8  2  0  0  0
  8  9  1  0  0  0
  9 10  2  0  0  0
 10  1  1  0  0  0
  9  4  1  0  0  0
 17 18  1  0  0  0
M  END
> <minimizedAffinity>
-7.30362

$$$$
decoy_metronidazole


 13 13  0  0  0  0  0  0  0  0999 V2000
   13.1265    8.1025    2.5846 C   0  0  0  0  0  0  0  0  0  0  0  0
   11.9880    9.0584    2.5576 C   0  0  0  0  0  0  0  0  0  0  0  0
   10.8316    8.8690    3.1652 N   0  0  0  0  0  0  0  0  0  0  0  0
   10.0691    9.9715    2.8829 C   0  0  0  0  0  0  0  0  0  0  0  0
   10.7818   10.8520    2.1129 C   0  0  0  0  0  0  0  0  0  0  0  0
   11.9976   10.2650    1.8733 N   0  0  0  0  0  0  0  0  0  0  0  0
   10.3584   12.1157    1.6252 N   0  0  0  0  0  0  0  0  0  0  0  0
   10.7680   13.1217    2.2154 O   0  0  0  0  0  0  0  0  0  0  0  0
    9.5561   12.1010    0.6840 O   0  0  0  0  0  0  0  0  0  0  0  0
   13.0739   10.7253    1.0094 C   0  0  0  0  0  0  0  0  0  0  0  0
   14.1692   11.4463    1.7907 C   0  0  0  0  0  0  0  0  0  0  0  0
   13.6791   12.6794    2.3015 O   0  0  0  0  0  0  0  0  0  0  0  0
   14.3956   13.0937    2.8150 H   0  0  0  0  0  0  0  0  0  0  0  0
  1  2  1  0  0  0
  2  3  2  0  0  0
  3  4  1  0  0  0
  4  5  2  0  0  0
  5  7  1  0  0  0
  7  8  2  0  0  0
  7  9  1  0  0  0
  5  6  1  0  0  0
  6 10  1  0  0  0
 10 11  1  0  0  0
 11 12  1  0  0  0
  6  2  1  0  0  0
 12 13  1  0  0  0
M  CHG 1   7   1
M  CHG 1   9  -1
M  END
> <minimizedAffinity>
-4.59186

$$$$
decoy_metoprolol


 21 21  0  0  0  0  0  0  0  0999 V2000
   11.9744   12.4225    1.6926 O   0  0  0  0  0  0  0  0  0  0  0  0
   12.1218    8.3923    2.7916 C   0  0  0  0  0  0  0  0  0  0  0  0
   13.2153    8.9474    2.1150 C   0  0  0  0  0  0  0  0  0  0  0  0
   13.2086   10.2926    1.7271 C   0  0  0  0  0  0  0  0  0  0  0  0
   12.1091   11.1005    2.0146 C   0  0  0  0  0  0  0  0  0  0  0  0
   11.0177   10.5505    2.6890 C   0  0  0  0  0  0  0  0  0  0  0  0
   11.0220    9.2087    3.0764 C   0  0  0  0  0  0  0  0  0  0  0  0
   12.1311    6.9410    3.2159 C   0  0  0  0  0  0  0  0  0  0  0  0
   13.0464    6.0752    2.3474 C   0  0  0  0  0  0  0  0  0  0  0  0
   13.0323    5.8891   -0.0040 C   0  0  0  0  0  0  0  0  0  0  0  0
   12.3300    5.6115    1.1998 O   0  0  0  0  0  0  0  0  0  0  0  0
   10.6729   12.8669    1.2961 C   0  0  0  0  0  0  0  0  0  0  0  0
   10.2367   12.0708    0.0580 C   0  0  0  0  0  0  0  0  0  0  0  0
    8.8384   11.7529    0.1596 O   0  0  0  0  0  0  0  0  0  0  0  0
    8.3839   12.6000    0.3331 H   0  0  0  0  0  0  0  0  0  0  0  0
   10.4829   12.8504   -1.2526 C   0  0  0  0  0  0  0  0  0  0  0  0
   11.9078   13.1588   -1.4701 N   0  0  0  0  0  0  0  0  0  0  0  0
   11.9551   13.7036   -2.3376 H   0  0  0  0  0  0  0  0  0  0  0  0
   12.7636   11.9737   -1.6062 C   0  0  0  0  0  0  0  0  0  0  0  0
   12.5255   11.3608   -2.9896 C   0  0  0  0  0  0  0  0  0  0  0  0
   14.2424   12.3357   -1.4568 C   0  0  0  0  0  0  0  0  0  0  0  0
 10 11  1  0  0  0
 11  9  1  0  0  0
  9  8  1  0  0  0
  8  2  1  0  0  0
  2  3  2  0  0  0
  3  4  1  0  0  0
  4  5  2  0  0  0
  5  1  1  0  0  0
  1 12  1  0  0  0
 12 13  1  0  0  0
 13 14  1  0  0  0
 13 16  1  0  0  0
 16 17  1  0  0  0
 17 19  1  0  0  0
 19 20  1  0  0  0
 19 21  1  0  0  0
  5  6  1  0  0  0
  6  7  2  0  0  0
  7  2  1  0  0  0
 14 15  1  0  0  0
 17 18  1  0  0  0
M  END
> <minimizedAffinity>
-5.78778

$$$$
decoy_loratadine


 27 30  0  0  0  0  0  0  0  0999 V2000
   17.1340   13.7716    4.1368 C   0  0  0  0  0  0  0  0  0  0  0  0
   18.1450   13.3013    4.6448 O   0  0  0  0  0  0  0  0  0  0  0  0
   16.3027   13.0788    3.2796 N   0  0  0  0  0  0  0  0  0  0  0  0
   16.5797   11.6833    2.9682 C   0  0  0  0  0  0  0  0  0  0  0  0
   15.2932   10.8578    2.8435 C   0  0  0  0  0  0  0  0  0  0  0  0
   14.3076   11.4248    1.8237 C   0  0  0  0  0  0  0  0  0  0  0  0
   13.2562   10.7178    1.3203 C   0  0  0  0  0  0  0  0  0  0  0  0
   12.9892    9.3463    1.8177 C   0  0  0  0  0  0  0  0  0  0  0  0
   13.7732    8.2574    1.4148 C   0  0  0  0  0  0  0  0  0  0  0  0
   13.4936    6.9762    1.8924 C   0  0  0  0  0  0  0  0  0  0  0  0
   12.4209    6.7815    2.7599 C   0  0  0  0  0  0  0  0  0  0  0  0
   12.0751    5.2013    3.3470 Cl  0  0  0  0  0  0  0  0  0  0  0  0
   11.6149    7.8531    3.1453 C   0  0  0  0  0  0  0  0  0  0  0  0
   11.8882    9.1427    2.6683 C   0  0  0  0  0  0  0  0  0  0  0  0
   10.9918   10.3069    3.0128 C   0  0  0  0  0  0  0  0  0  0  0  0
   10.1892   10.7903    1.7973 C   0  0  0  0  0  0  0  0  0  0  0  0
   10.9129   11.3682    0.5970 C   0  0  0  0  0  0  0  0  0  0  0  0
   10.1152   11.9578   -0.4003 C   0  0  0  0  0  0  0  0  0  0  0  0
   10.6905   12.4822   -1.5515 C   0  0  0  0  0  0  0  0  0  0  0  0
   12.0607   12.4003   -1.6852 C   0  0  0  0  0  0  0  0  0  0  0  0
   12.8683   11.8447   -0.7603 N   0  0  0  0  0  0  0  0  0  0  0  0
   12.2962   11.3403    0.3677 C   0  0  0  0  0  0  0  0  0  0  0  0
   14.5856   12.8848    1.4750 C   0  0  0  0  0  0  0  0  0  0  0  0
   15.1218   13.6828    2.6696 C   0  0  0  0  0  0  0  0  0  0  0  0
   16.6978   15.0420    4.3616 O   0  0  0  0  0  0  0  0  0  0  0  0
   15.3806   14.9583    6.3513 C   0  0  0  0  0  0  0  0  0  0  0  0
   16.6866   15.4277    5.7404 C   0  0  0  0  0  0  0  0  0  0  0  0
 26 27  1  0  0  0
 27 25  1  0  0  0
 25  1  1  0  0  0
  1  2  2  0  0  0
  1  3  1  0  0  0
  3  4  1  0  0  0
  4  5  1  0  0  0
  5  6  1  0  0  0
  6  7  2  0  0  0
  7  8  1  0  0  0
  8  9  2  0  0  0
  9 10  1  0  0  0
 10 11  2  0  0  0
 11 12  1  0  0  0
 11 13  1  0  0  0
 13 14  2  0  0  0
 14 15  1  0  0  0
 15 16  1  0  0  0
 16 17  1  0  0  0
 17 18  2  0  0  0
 18 19  1  0  0  0
 19 20  2  0  0  0
 20 21  1  0  0  0
 21 22  2  0  0  0
  6 23  1  0  0  0
 23 24  1  0  0  0
 24  3  1  0  0  0
 22  7  1  0  0  0
 14  8  1  0  0  0
 22 17  1  0  0  0
M  END
> <minimizedAffinity>
-8.34003

$$$$
decoy_lidocaine


 18 18  0  0  0  0  0  0  0  0999 V2000
   11.8736    8.4055    2.6865 C   0  0  0  0  0  0  0  0  0  0  0  0
   11.2233    8.9016    3.5999 O   0  0  0  0  0  0  0  0  0  0  0  0
   12.7735    9.0452    1.8488 N   0  0  0  0  0  0  0  0  0  0  0  0
   13.4209    8.3752    1.4414 H   0  0  0  0  0  0  0  0  0  0  0  0
   13.1652   10.4024    1.8829 C   0  0  0  0  0  0  0  0  0  0  0  0
   14.4959   10.6823    2.2863 C   0  0  0  0  0  0  0  0  0  0  0  0
   15.4636    9.5966    2.6811 C   0  0  0  0  0  0  0  0  0  0  0  0
   14.9356   12.0140    2.3696 C   0  0  0  0  0  0  0  0  0  0  0  0
   14.0844   13.0628    2.0479 C   0  0  0  0  0  0  0  0  0  0  0  0
   12.7942   12.7903    1.6080 C   0  0  0  0  0  0  0  0  0  0  0  0
   12.3270   11.4669    1.4872 C   0  0  0  0  0  0  0  0  0  0  0  0
   10.9580   11.2964    0.8861 C   0  0  0  0  0  0  0  0  0  0  0  0
   11.7454    6.9139    2.3403 C   0  0  0  0  0  0  0  0  0  0  0  0
   13.0832    6.3124    2.0703 N   0  0  0  0  0  0  0  0  0  0  0  0
   14.7504    4.6297    2.8978 C   0  0  0  0  0  0  0  0  0  0  0  0
   13.3487    5.2173    3.0253 C   0  0  0  0  0  0  0  0  0  0  0  0
   13.1964    5.9107    0.6567 C   0  0  0  0  0  0  0  0  0  0  0  0
   11.9300    5.3768   -0.0069 C   0  0  0  0  0  0  0  0  0  0  0  0
 15 16  1  0  0  0
 16 14  1  0  0  0
 14 17  1  0  0  0
 17 18  1  0  0  0
 14 13  1  0  0  0
 13  1  1  0  0  0
  1  2  2  0  0  0
  1  3  1  0  0  0
  3  5  1  0  0  0
  5  6  2  0  0  0
  6  7  1  0  0  0
  6  8  1  0  0  0
  8  9  2  0  0  0
  9 10  1  0  0  0
 10 11  2  0  0  0
 11 12  1  0  0  0
 11  5  1  0  0  0
  3  4  1  0  0  0
M  END
> <minimizedAffinity>
-5.61832

$$$$
decoy_ketoprofen


 20 21  0  0  0  0  0  0  0  0999 V2000
   13.3906    7.5308    2.4683 C   0  0  0  0  0  0  0  0  0  0  0  0
   14.7307    7.9334    2.5786 C   0  0  0  0  0  0  0  0  0  0  0  0
   15.0908    9.2745    2.4282 C   0  0  0  0  0  0  0  0  0  0  0  0
   14.1157   10.2390    2.1774 C   0  0  0  0  0  0  0  0  0  0  0  0
   12.7726    9.8616    2.0885 C   0  0  0  0  0  0  0  0  0  0  0  0
   12.4167    8.5117    2.2166 C   0  0  0  0  0  0  0  0  0  0  0  0
   14.1864    5.1431    2.6514 C   0  0  0  0  0  0  0  0  0  0  0  0
   12.9742    6.0743    2.6175 C   0  0  0  0  0  0  0  0  0  0  0  0
   12.0070    5.6075    1.5420 C   0  0  0  0  0  0  0  0  0  0  0  0
   12.2159    5.4690    0.3482 O   0  0  0  0  0  0  0  0  0  0  0  0
   10.7956    5.2878    2.0492 O   0  0  0  0  0  0  0  0  0  0  0  0
   10.2795    5.0098    1.2632 H   0  0  0  0  0  0  0  0  0  0  0  0
   11.6995   10.8508    1.8113 C   0  0  0  0  0  0  0  0  0  0  0  0
   10.9785   11.2278    2.7320 O   0  0  0  0  0  0  0  0  0  0  0  0
   11.4783   11.3979    0.4491 C   0  0  0  0  0  0  0  0  0  0  0  0
   10.3074   12.1249    0.2046 C   0  0  0  0  0  0  0  0  0  0  0  0
   10.0708   12.6642   -1.0605 C   0  0  0  0  0  0  0  0  0  0  0  0
   11.0079   12.4900   -2.0788 C   0  0  0  0  0  0  0  0  0  0  0  0
   12.1866   11.7851   -1.8330 C   0  0  0  0  0  0  0  0  0  0  0  0
   12.4276   11.2434   -0.5686 C   0  0  0  0  0  0  0  0  0  0  0  0
  7  8  1  0  0  0
  8  9  1  0  0  0
  9 10  2  0  0  0
  9 11  1  0  0  0
  8  1  1  0  0  0
  1  2  2  0  0  0
  2  3  1  0  0  0
  3  4  2  0  0  0
  4  5  1  0  0  0
  5 13  1  0  0  0
 13 14  2  0  0  0
 13 15  1  0  0  0
 15 16  2  0  0  0
 16 17  1  0  0  0
 17 18  2  0  0  0
 18 19  1  0  0  0
 19 20  2  0  0  0
  5  6  2  0  0  0
  6  1  1  0  0  0
 20 15  1  0  0  0
 11 12  1  0  0  0
M  END
> <minimizedAffinity>
-8.23630

$$$$
decoy_indomethacin


 26 28  0  0  0  0  0  0  0  0999 V2000
   15.8417   11.9557    1.0476 C   0  0  0  0  0  0  0  0  0  0  0  0
   15.8227   10.8065    1.8287 C   0  0  0  0  0  0  0  0  0  0  0  0
   14.6228   10.1718    2.1672 C   0  0  0  0  0  0  0  0  0  0  0  0
   13.4116   10.7022    1.6809 C   0  0  0  0  0  0  0  0  0  0  0  0
   13.4059   11.8846    0.9368 C   0  0  0  0  0  0  0  0  0  0  0  0
   14.6363   12.5039    0.6059 C   0  0  0  0  0  0  0  0  0  0  0  0
   12.0477   12.2425    0.6956 C   0  0  0  0  0  0  0  0  0  0  0  0
   11.2563   11.2823    1.3092 C   0  0  0  0  0  0  0  0  0  0  0  0
    9.7645   11.2248    1.4024 C   0  0  0  0  0  0  0  0  0  0  0  0
   12.0836   10.2781    1.8245 N   0  0  0  0  0  0  0  0  0  0  0  0
   11.6467    9.0512    2.3951 C   0  0  0  0  0  0  0  0  0  0  0  0
   10.5010    8.9894    2.8397 O   0  0  0  0  0  0  0  0  0  0  0  0
   12.4496    7.8088    2.4655 C   0  0  0  0  0  0  0  0  0  0  0  0
   13.1785    7.3638    1.3549 C   0  0  0  0  0  0  0  0  0  0  0  0
   13.9047    6.1727    1.4348 C   0  0  0  0  0  0  0  0  0  0  0  0
   13.8853    5.4244    2.6124 C   0  0  0  0  0  0  0  0  0  0  0  0
   14.7812    3.9592    2.7062 Cl  0  0  0  0  0  0  0  0  0  0  0  0
   13.1393    5.8509    3.7112 C   0  0  0  0  0  0  0  0  0  0  0  0
   12.4125    7.0414    3.6362 C   0  0  0  0  0  0  0  0  0  0  0  0
   18.1957   11.6318    1.1438 C   0  0  0  0  0  0  0  0  0  0  0  0
   17.0902   12.4579    0.8003 O   0  0  0  0  0  0  0  0  0  0  0  0
   11.5884   13.4561   -0.0523 C   0  0  0  0  0  0  0  0  0  0  0  0
   10.8117   13.0900   -1.2904 C   0  0  0  0  0  0  0  0  0  0  0  0
   11.2638   12.6240   -2.3242 O   0  0  0  0  0  0  0  0  0  0  0  0
    9.4857   13.3152   -1.1702 O   0  0  0  0  0  0  0  0  0  0  0  0
    9.1215   12.9909   -2.0212 H   0  0  0  0  0  0  0  0  0  0  0  0
 20 21  1  0  0  0
 21  1  1  0  0  0
  1  2  2  0  0  0
  2  3  1  0  0  0
  3  4  2  0  0  0
  4  5  1  0  0  0
  5  6  2  0  0  0
  5  7  1  0  0  0
  7 22  1  0  0  0
 22 23  1  0  0  0
 23 24  2  0  0  0
 23 25  1  0  0  0
  7  8  2  0  0  0
  8  9  1  0  0  0
  8 10  1  0  0  0
 10 11  1  0  0  0
 11 12  2  0  0  0
 11 13  1  0  0  0
 13 14  2  0  0  0
 14 15  1  0  0  0
 15 16  2  0  0  0
 16 17  1  0  0  0
 16 18  1  0  0  0
 18 19  2  0  0  0
  6  1  1  0  0  0
 19 13  1  0  0  0
 10  4  1  0  0  0
 25 26  1  0  0  0
M  END
> <minimizedAffinity>
-8.00293

$$$$
decoy_ibuprofen


 16 16  0  0  0  0  0  0  0  0999 V2000
   12.1176    8.6026    2.4161 C   0  0  0  0  0  0  0  0  0  0  0  0
   10.9359    9.1737    2.9017 C   0  0  0  0  0  0  0  0  0  0  0  0
   10.5536   10.4606    2.5128 C   0  0  0  0  0  0  0  0  0  0  0  0
   11.3433   11.2078    1.6266 C   0  0  0  0  0  0  0  0  0  0  0  0
   12.5236   10.6299    1.1381 C   0  0  0  0  0  0  0  0  0  0  0  0
   12.9043    9.3425    1.5263 C   0  0  0  0  0  0  0  0  0  0  0  0
   10.9132   12.6113    1.2289 C   0  0  0  0  0  0  0  0  0  0  0  0
   12.0673   13.6094    1.3262 C   0  0  0  0  0  0  0  0  0  0  0  0
   10.3016   12.6849   -0.1599 C   0  0  0  0  0  0  0  0  0  0  0  0
   10.7598   13.2106   -1.1609 O   0  0  0  0  0  0  0  0  0  0  0  0
    9.0760   12.1158   -0.2085 O   0  0  0  0  0  0  0  0  0  0  0  0
    8.8007   12.2427   -1.1411 H   0  0  0  0  0  0  0  0  0  0  0  0
   12.5304    7.2120    2.8352 C   0  0  0  0  0  0  0  0  0  0  0  0
   12.9574    5.9835    0.6298 C   0  0  0  0  0  0  0  0  0  0  0  0
   13.5634    6.5043    1.9337 C   0  0  0  0  0  0  0  0  0  0  0  0
   14.3175    5.3873    2.6562 C   0  0  0  0  0  0  0  0  0  0  0  0
 14 15  1  0  0  0
 15 16  1  0  0  0
 15 13  1  0  0  0
 13  1  1  0  0  0
  1  2  2  0  0  0
  2  3  1  0  0  0
  3  4  2  0  0  0
  4  7  1  0  0  0
  7  8  1  0  0  0
  7  9  1  0  0  0
  9 10  2  0  0  0
  9 11  1  0  0  0
  4  5  1  0  0  0
  5  6  2  0  0  0
  6  1  1  0  0  0
 11 12  1  0  0  0
M  END
> <minimizedAffinity>
-6.81670

$$$$
decoy_hydrochlorothiazide


 21 22  0  0  0  0  0  0  0  0999 V2000
   11.7318    9.6489    2.3248 C   0  0  0  0  0  0  0  0  0  0  0  0
   11.4659    8.3200    2.6759 C   0  0  0  0  0  0  0  0  0  0  0  0
   12.5008    7.3801    2.6330 C   0  0  0  0  0  0  0  0  0  0  0  0
   13.7929    7.7096    2.2251 C   0  0  0  0  0  0  0  0  0  0  0  0
   14.0355    9.0488    1.8892 C   0  0  0  0  0  0  0  0  0  0  0  0
   13.0194   10.0190    1.9324 C   0  0  0  0  0  0  0  0  0  0  0  0
   13.4657   11.6218    1.4681 Cl  0  0  0  0  0  0  0  0  0  0  0  0
   14.8570    6.8124    2.2109 N   0  0  0  0  0  0  0  0  0  0  0  0
   14.6922    5.4493    2.6544 C   0  0  0  0  0  0  0  0  0  0  0  0
   13.4238    4.9184    2.2140 N   0  0  0  0  0  0  0  0  0  0  0  0
   12.1467    5.6978    2.9790 S   0  0  0  0  0  0  0  0  0  0  0  0
   10.9463    5.3192    2.2689 O   0  0  0  0  0  0  0  0  0  0  0  0
   12.2914    5.4822    4.4007 O   0  0  0  0  0  0  0  0  0  0  0  0
   15.4592    6.9087    1.3976 H   0  0  0  0  0  0  0  0  0  0  0  0
   13.3348    3.9150    2.3624 H   0  0  0  0  0  0  0  0  0  0  0  0
    9.6718   10.4483    3.8722 N   0  0  0  0  0  0  0  0  0  0  0  0
   10.4140   10.8188    2.4140 S   0  0  0  0  0  0  0  0  0  0  0  0
   10.9751   12.1361    2.6125 O   0  0  0  0  0  0  0  0  0  0  0  0
    9.4621   10.5513    1.3641 O   0  0  0  0  0  0  0  0  0  0  0  0
    8.7212   10.1154    3.7031 H   0  0  0  0  0  0  0  0  0  0  0  0
    9.7218   11.2515    4.5005 H   0  0  0  0  0  0  0  0  0  0  0  0
 16 17  1  0  0  0
 17 18  2  0  0  0
 17 19  2  0  0  0
 17  1  1  0  0  0
  1  2  2  0  0  0
  2  3  1  0  0  0
  3  4  2  0  0  0
  4  5  1  0  0  0
  5  6  2  0  0  0
  6  7  1  0  0  0
  4  8  1  0  0  0
  8  9  1  0  0  0
  9 10  1  0  0  0
 10 11  1  0  0  0
 11 12  2  0  0  0
 11 13  2  0  0  0
  6  1  1  0  0  0
 11  3  1  0  0  0
 16 20  1  0  0  0
 16 21  1  0  0  0
  8 14  1  0  0  0
 10 15  1  0  0  0
M  END
> <minimizedAffinity>
-6.75961

$$$$
decoy_haloperidol


 27 29  0  0  0  0  0  0  0  0999 V2000
   11.8841   13.5798    0.0255 N   0  0  0  0  0  0  0  0  0  0  0  0
   12.8836   13.4237    1.0774 C   0  0  0  0  0  0  0  0  0  0  0  0
   14.2860   13.7528    0.5485 C   0  0  0  0  0  0  0  0  0  0  0  0
   14.6212   13.0550   -0.7901 C   0  0  0  0  0  0  0  0  0  0  0  0
   14.6216   14.0507   -1.8316 O   0  0  0  0  0  0  0  0  0  0  0  0
   13.5221   12.0460   -1.1510 C   0  0  0  0  0  0  0  0  0  0  0  0
   12.1248   12.6783   -1.1126 C   0  0  0  0  0  0  0  0  0  0  0  0
   15.1483   13.6998   -2.5700 H   0  0  0  0  0  0  0  0  0  0  0  0
   16.0444   12.4827   -0.7574 C   0  0  0  0  0  0  0  0  0  0  0  0
   16.8750   12.6552   -1.8851 C   0  0  0  0  0  0  0  0  0  0  0  0
   18.1788   12.1540   -1.9124 C   0  0  0  0  0  0  0  0  0  0  0  0
   18.6750   11.4690   -0.8094 C   0  0  0  0  0  0  0  0  0  0  0  0
   20.2789   10.8488   -0.8350 Cl  0  0  0  0  0  0  0  0  0  0  0  0
   17.8773   11.2820    0.3155 C   0  0  0  0  0  0  0  0  0  0  0  0
   16.5708   11.7844    0.3412 C   0  0  0  0  0  0  0  0  0  0  0  0
   10.4964   13.4721    0.4975 C   0  0  0  0  0  0  0  0  0  0  0  0
   10.3777   12.6314    1.7781 C   0  0  0  0  0  0  0  0  0  0  0  0
   10.0284   11.1741    1.4832 C   0  0  0  0  0  0  0  0  0  0  0  0
    9.7523   10.1801    3.6371 O   0  0  0  0  0  0  0  0  0  0  0  0
   10.4345   10.2515    2.6151 C   0  0  0  0  0  0  0  0  0  0  0  0
   11.6628    9.4061    2.4937 C   0  0  0  0  0  0  0  0  0  0  0  0
   12.8547    9.8756    1.9238 C   0  0  0  0  0  0  0  0  0  0  0  0
   13.9688    9.0346    1.8354 C   0  0  0  0  0  0  0  0  0  0  0  0
   13.8904    7.7311    2.3119 C   0  0  0  0  0  0  0  0  0  0  0  0
   14.9605    6.9313    2.2237 F   0  0  0  0  0  0  0  0  0  0  0  0
   12.7173    7.2472    2.8755 C   0  0  0  0  0  0  0  0  0  0  0  0
   11.6025    8.0839    2.9653 C   0  0  0  0  0  0  0  0  0  0  0  0
 19 20  2  0  0  0
 20 18  1  0  0  0
 18 17  1  0  0  0
 17 16  1  0  0  0
 16  1  1  0  0  0
  1  2  1  0  0  0
  2  3  1  0  0  0
  3  4  1  0  0  0
  4  5  1  0  0  0
  4  9  1  0  0  0
  9 10  2  0  0  0
 10 11  1  0  0  0
 11 12  2  0  0  0
 12 13  1  0  0  0
 12 14  1  0  0  0
 14 15  2  0  0  0
  4  6  1  0  0  0
  6  7  1  0  0  0
 20 21  1  0  0  0
 21 22  2  0  0  0
 22 23  1  0  0  0
 23 24  2  0  0  0
 24 25  1  0  0  0
 24 26  1  0  0  0
 26 27  2  0  0  0
  7  1  1  0  0  0
 27 21  1  0  0  0
 15  9  1  0  0  0
  5  8  1  0  0  0
M  END
> <minimizedAffinity>
-7.04565

$$$$
decoy_furosemide


 25 26  0  0  0  0  0  0  0  0999 V2000
   12.6104    7.3757    2.7132 C   0  0  0  0  0  0  0  0  0  0  0  0
   11.4305    8.1282    2.7754 C   0  0  0  0  0  0  0  0  0  0  0  0
   11.4465    9.5177    2.5487 C   0  0  0  0  0  0  0  0  0  0  0  0
   12.6650   10.1780    2.2645 C   0  0  0  0  0  0  0  0  0  0  0  0
   13.8251    9.3868    2.1663 C   0  0  0  0  0  0  0  0  0  0  0  0
   13.8111    8.0040    2.4017 C   0  0  0  0  0  0  0  0  0  0  0  0
   15.3293    7.1885    2.3083 Cl  0  0  0  0  0  0  0  0  0  0  0  0
   10.9510    5.2324    2.5089 N   0  0  0  0  0  0  0  0  0  0  0  0
   12.5085    5.6321    2.9941 S   0  0  0  0  0  0  0  0  0  0  0  0
   13.3600    4.9729    2.0288 O   0  0  0  0  0  0  0  0  0  0  0  0
   12.6340    5.3941    4.4105 O   0  0  0  0  0  0  0  0  0  0  0  0
   10.3035    6.0155    2.4509 H   0  0  0  0  0  0  0  0  0  0  0  0
   10.9866    4.6615    1.6635 H   0  0  0  0  0  0  0  0  0  0  0  0
   10.1223   10.1970    2.6488 C   0  0  0  0  0  0  0  0  0  0  0  0
    9.3518   10.0997    3.5872 O   0  0  0  0  0  0  0  0  0  0  0  0
    9.8303   11.0009    1.6093 O   0  0  0  0  0  0  0  0  0  0  0  0
    8.9549   11.3751    1.8499 H   0  0  0  0  0  0  0  0  0  0  0  0
   12.7096   11.5497    1.9498 N   0  0  0  0  0  0  0  0  0  0  0  0
   13.1235   12.0631    2.7402 H   0  0  0  0  0  0  0  0  0  0  0  0
   13.3610   11.9880    0.7101 C   0  0  0  0  0  0  0  0  0  0  0  0
   12.4895   12.0001   -0.4999 C   0  0  0  0  0  0  0  0  0  0  0  0
   12.6526   11.5456   -1.7926 C   0  0  0  0  0  0  0  0  0  0  0  0
   11.4562   11.8626   -2.4804 C   0  0  0  0  0  0  0  0  0  0  0  0
   10.6421   12.4887   -1.5663 C   0  0  0  0  0  0  0  0  0  0  0  0
   11.2597   12.5767   -0.3607 O   0  0  0  0  0  0  0  0  0  0  0  0
  8  9  1  0  0  0
  9 10  2  0  0  0
  9 11  2  0  0  0
  9  1  1  0  0  0
  1  2  2  0  0  0
  2  3  1  0  0  0
  3 14  1  0  0  0
 14 15  2  0  0  0
 14 16  1  0  0  0
  3  4  2  0  0  0
  4 18  1  0  0  0
 18 20  1  0  0  0
 20 21  1  0  0  0
 21 22  2  0  0  0
 22 23  1  0  0  0
 23 24  2  0  0  0
 24 25  1  0  0  0
  4  5  1  0  0  0
  5  6  2  0  0  0
  6  7  1  0  0  0
  6  1  1  0  0  0
 25 21  1  0  0  0
  8 12  1  0  0  0
  8 13  1  0  0  0
 16 17  1  0  0  0
 18 19  1  0  0  0
M  END
> <minimizedAffinity>
-7.02573

$$$$
decoy_fluoxetine


 23 24  0  0  0  0  0  0  0  0999 V2000
   13.8095   11.4259    0.5829 C   0  0  0  0  0  0  0  0  0  0  0  0
   12.4997   11.9076   -0.0207 C   0  0  0  0  0  0  0  0  0  0  0  0
   11.5129   12.5130    0.7727 C   0  0  0  0  0  0  0  0  0  0  0  0
   10.3204   12.9631    0.2046 C   0  0  0  0  0  0  0  0  0  0  0  0
   10.1005   12.8179   -1.1632 C   0  0  0  0  0  0  0  0  0  0  0  0
   11.0721   12.2224   -1.9647 C   0  0  0  0  0  0  0  0  0  0  0  0
   12.2652   11.7702   -1.3984 C   0  0  0  0  0  0  0  0  0  0  0  0
   14.8677   12.5479    0.6113 C   0  0  0  0  0  0  0  0  0  0  0  0
   15.2603   12.9657    2.0309 C   0  0  0  0  0  0  0  0  0  0  0  0
   14.0685   15.0733    1.8094 C   0  0  0  0  0  0  0  0  0  0  0  0
   14.3142   13.9036    2.6417 N   0  0  0  0  0  0  0  0  0  0  0  0
   13.4307   13.4328    2.8353 H   0  0  0  0  0  0  0  0  0  0  0  0
   13.6232   11.0274    1.9543 O   0  0  0  0  0  0  0  0  0  0  0  0
   13.4899    9.6998    2.2477 C   0  0  0  0  0  0  0  0  0  0  0  0
   14.4836    8.7284    2.1473 C   0  0  0  0  0  0  0  0  0  0  0  0
   14.2017    7.3955    2.4705 C   0  0  0  0  0  0  0  0  0  0  0  0
   12.9181    7.0126    2.8868 C   0  0  0  0  0  0  0  0  0  0  0  0
   11.9234    7.9943    2.9831 C   0  0  0  0  0  0  0  0  0  0  0  0
   12.2089    9.3229    2.6584 C   0  0  0  0  0  0  0  0  0  0  0  0
   12.6241    5.5794    3.2550 C   0  0  0  0  0  0  0  0  0  0  0  0
   12.5803    5.3906    4.6027 F   0  0  0  0  0  0  0  0  0  0  0  0
   13.5570    4.7041    2.7855 F   0  0  0  0  0  0  0  0  0  0  0  0
   11.4275    5.1371    2.7764 F   0  0  0  0  0  0  0  0  0  0  0  0
 10 11  1  0  0  0
 11  9  1  0  0  0
  9  8  1  0  0  0
  8  1  1  0  0  0
  1 13  1  0  0  0
 13 14  1  0  0  0
 14 15  2  0  0  0
 15 16  1  0  0  0
 16 17  2  0  0  0
 17 20  1  0  0  0
 20 21  1  0  0  0
 20 22  1  0  0  0
 20 23  1  0  0  0
 17 18  1  0  0  0
 18 19  2  0  0  0
  1  2  1  0  0  0
  2  3  2  0  0  0
  3  4  1  0  0  0
  4  5  2  0  0  0
  5  6  1  0  0  0
  6  7  2  0  0  0
 19 14  1  0  0  0
  7  2  1  0  0  0
 11 12  1  0  0  0
M  END
> <minimizedAffinity>
-6.98821

$$$$
decoy_fluconazole


 23 25  0  0  0  0  0  0  0  0999 V2000
   12.3275   11.0754    2.5891 O   0  0  0  0  0  0  0  0  0  0  0  0
   13.1690   10.3839    1.6348 C   0  0  0  0  0  0  0  0  0  0  0  0
   11.3999   10.8062    2.3957 H   0  0  0  0  0  0  0  0  0  0  0  0
   13.2064    8.8984    2.0134 C   0  0  0  0  0  0  0  0  0  0  0  0
   14.3850    8.1308    1.9582 C   0  0  0  0  0  0  0  0  0  0  0  0
   14.3796    6.7795    2.3216 C   0  0  0  0  0  0  0  0  0  0  0  0
   13.2040    6.1842    2.7587 C   0  0  0  0  0  0  0  0  0  0  0  0
   13.2081    4.8920    3.1085 F   0  0  0  0  0  0  0  0  0  0  0  0
   12.0339    6.9159    2.8554 C   0  0  0  0  0  0  0  0  0  0  0  0
   12.0463    8.2589    2.4926 C   0  0  0  0  0  0  0  0  0  0  0  0
   10.9121    8.9551    2.6532 F   0  0  0  0  0  0  0  0  0  0  0  0
   12.6223   10.7291    0.2178 C   0  0  0  0  0  0  0  0  0  0  0  0
   11.5202   11.6753    0.2015 N   0  0  0  0  0  0  0  0  0  0  0  0
   11.5405   12.9618   -0.2395 C   0  0  0  0  0  0  0  0  0  0  0  0
   10.3484   13.4918   -0.0962 N   0  0  0  0  0  0  0  0  0  0  0  0
    9.6240   12.4791    0.4637 C   0  0  0  0  0  0  0  0  0  0  0  0
   10.2995   11.3440    0.6705 N   0  0  0  0  0  0  0  0  0  0  0  0
   14.5728   11.0139    1.8221 C   0  0  0  0  0  0  0  0  0  0  0  0
   14.6282   12.4426    1.6300 N   0  0  0  0  0  0  0  0  0  0  0  0
   15.2326   13.1269    0.6228 C   0  0  0  0  0  0  0  0  0  0  0  0
   15.0668   14.4154    0.8112 N   0  0  0  0  0  0  0  0  0  0  0  0
   14.3568   14.4694    1.9753 C   0  0  0  0  0  0  0  0  0  0  0  0
   14.0518   13.2829    2.5102 N   0  0  0  0  0  0  0  0  0  0  0  0
  1  2  1  0  0  0
  2 12  1  0  0  0
 12 13  1  0  0  0
 13 14  1  0  0  0
 14 15  2  0  0  0
 15 16  1  0  0  0
 16 17  2  0  0  0
  2 18  1  0  0  0
 18 19  1  0  0  0
 19 20  1  0  0  0
 20 21  2  0  0  0
 21 22  1  0  0  0
 22 23  2  0  0  0
  2  4  1  0  0  0
  4  5  2  0  0  0
  5  6  1  0  0  0
  6  7  2  0  0  0
  7  8  1  0  0  0
  7  9  1  0  0  0
  9 10  2  0  0  0
 10 11  1  0  0  0
 17 13  1  0  0  0
 23 19  1  0  0  0
 10  4  1  0  0  0
  1  3  1  0  0  0
M  END
> <minimizedAffinity>
-6.06070

$$$$
decoy_diphenhydramine


 19 20  0  0  0  0  0  0  0  0999 V2000
   12.8670    9.5878    1.7746 C   0  0  0  0  0  0  0  0  0  0  0  0
   11.9850   10.6848    1.1953 C   0  0  0  0  0  0  0  0  0  0  0  0
   10.9761   11.2719    1.9804 C   0  0  0  0  0  0  0  0  0  0  0  0
   10.1491   12.2675    1.4528 C   0  0  0  0  0  0  0  0  0  0  0  0
   10.3162   12.6872    0.1347 C   0  0  0  0  0  0  0  0  0  0  0  0
   11.3092   12.1123   -0.6582 C   0  0  0  0  0  0  0  0  0  0  0  0
   12.1370   11.1172   -0.1323 C   0  0  0  0  0  0  0  0  0  0  0  0
   14.2135   10.1157    2.2529 C   0  0  0  0  0  0  0  0  0  0  0  0
   15.2129    9.2170    2.6666 C   0  0  0  0  0  0  0  0  0  0  0  0
   16.4574    9.6819    3.0965 C   0  0  0  0  0  0  0  0  0  0  0  0
   16.7232   11.0495    3.1126 C   0  0  0  0  0  0  0  0  0  0  0  0
   15.7462   11.9535    2.6981 C   0  0  0  0  0  0  0  0  0  0  0  0
   14.5009   11.4903    2.2694 C   0  0  0  0  0  0  0  0  0  0  0  0
   12.1567    8.9514    2.8504 O   0  0  0  0  0  0  0  0  0  0  0  0
   11.6785    7.6425    2.5280 C   0  0  0  0  0  0  0  0  0  0  0  0
   12.5811    6.5562    3.1465 C   0  0  0  0  0  0  0  0  0  0  0  0
   14.3300    4.9023    2.7398 C   0  0  0  0  0  0  0  0  0  0  0  0
   13.0908    5.5024    2.2513 N   0  0  0  0  0  0  0  0  0  0  0  0
   13.2386    5.9587    0.8712 C   0  0  0  0  0  0  0  0  0  0  0  0
 17 18  1  0  0  0
 18 19  1  0  0  0
 18 16  1  0  0  0
 16 15  1  0  0  0
 15 14  1  0  0  0
 14  1  1  0  0  0
  1  2  1  0  0  0
  2  3  2  0  0  0
  3  4  1  0  0  0
  4  5  2  0  0  0
  5  6  1  0  0  0
  6  7  2  0  0  0
  1  8  1  0  0  0
  8  9  2  0  0  0
  9 10  1  0  0  0
 10 11  2  0  0  0
 11 12  1  0  0  0
 12 13  2  0  0  0
  7  2  1  0  0  0
 13  8  1  0  0  0
M  END
> <minimizedAffinity>
-6.37762

$$$$
decoy_diazepam


 20 22  0  0  0  0  0  0  0  0999 V2000
   14.2360    6.5845    2.1311 C   0  0  0  0  0  0  0  0  0  0  0  0
   13.4737    7.7905    2.4261 N   0  0  0  0  0  0  0  0  0  0  0  0
   12.1707    7.6051    2.9056 C   0  0  0  0  0  0  0  0  0  0  0  0
   11.6551    6.4869    2.9969 O   0  0  0  0  0  0  0  0  0  0  0  0
   11.4287    8.8387    3.4009 C   0  0  0  0  0  0  0  0  0  0  0  0
   11.0802    9.6816    2.2621 N   0  0  0  0  0  0  0  0  0  0  0  0
   12.0340   10.3048    1.6566 C   0  0  0  0  0  0  0  0  0  0  0  0
   13.4620   10.2671    2.0889 C   0  0  0  0  0  0  0  0  0  0  0  0
   14.1462   11.4964    2.1375 C   0  0  0  0  0  0  0  0  0  0  0  0
   15.5065   11.5279    2.4195 C   0  0  0  0  0  0  0  0  0  0  0  0
   16.3396   13.0307    2.4614 Cl  0  0  0  0  0  0  0  0  0  0  0  0
   16.1967   10.3470    2.6557 C   0  0  0  0  0  0  0  0  0  0  0  0
   15.5144    9.1260    2.6337 C   0  0  0  0  0  0  0  0  0  0  0  0
   14.1305    9.0605    2.3791 C   0  0  0  0  0  0  0  0  0  0  0  0
   11.6664   11.1165    0.4519 C   0  0  0  0  0  0  0  0  0  0  0  0
   10.4268   11.7670    0.4236 C   0  0  0  0  0  0  0  0  0  0  0  0
   10.0606   12.5291   -0.6868 C   0  0  0  0  0  0  0  0  0  0  0  0
   10.9252   12.6354   -1.7756 C   0  0  0  0  0  0  0  0  0  0  0  0
   12.1530   11.9735   -1.7609 C   0  0  0  0  0  0  0  0  0  0  0  0
   12.5237   11.2095   -0.6521 C   0  0  0  0  0  0  0  0  0  0  0  0
  1  2  1  0  0  0
  2  3  1  0  0  0
  3  4  2  0  0  0
  3  5  1  0  0  0
  5  6  1  0  0  0
  6  7  2  0  0  0
  7 15  1  0  0  0
 15 16  2  0  0  0
 16 17  1  0  0  0
 17 18  2  0  0  0
 18 19  1  0  0  0
 19 20  2  0  0  0
  7  8  1  0  0  0
  8  9  2  0  0  0
  9 10  1  0  0  0
 10 11  1  0  0  0
 10 12  2  0  0  0
 12 13  1  0  0  0
 13 14  2  0  0  0
 14  2  1  0  0  0
 20 15  1  0  0  0
 14  8  1  0  0  0
M  END
> <minimizedAffinity>
-7.96524

$$$$
decoy_ciprofloxacin


 26 29  0  0  0  0  0  0  0  0999 V2000
   13.4260   14.4052    1.1382 C   0  0  0  0  0  0  0  0  0  0  0  0
   12.4090   13.7471    0.5608 C   0  0  0  0  0  0  0  0  0  0  0  0
   12.2428   12.3743    0.5267 N   0  0  0  0  0  0  0  0  0  0  0  0
   13.1251   11.5520    1.2834 C   0  0  0  0  0  0  0  0  0  0  0  0
   12.9325   10.1668    1.4368 C   0  0  0  0  0  0  0  0  0  0  0  0
   13.8130    9.3478    2.1778 C   0  0  0  0  0  0  0  0  0  0  0  0
   14.9311    9.9807    2.7510 C   0  0  0  0  0  0  0  0  0  0  0  0
   15.8285    9.2873    3.4685 F   0  0  0  0  0  0  0  0  0  0  0  0
   15.1485   11.3497    2.6262 C   0  0  0  0  0  0  0  0  0  0  0  0
   14.2452   12.1309    1.9037 C   0  0  0  0  0  0  0  0  0  0  0  0
   14.4820   13.5930    1.7867 C   0  0  0  0  0  0  0  0  0  0  0  0
   15.5300   14.0745    2.2025 O   0  0  0  0  0  0  0  0  0  0  0  0
   13.5346    7.9680    2.2552 N   0  0  0  0  0  0  0  0  0  0  0  0
   12.5439    7.5198    3.2615 C   0  0  0  0  0  0  0  0  0  0  0  0
   12.5518    5.9770    3.3671 C   0  0  0  0  0  0  0  0  0  0  0  0
   12.2989    5.3039    2.0780 N   0  0  0  0  0  0  0  0  0  0  0  0
   13.2680    5.7900    1.0791 C   0  0  0  0  0  0  0  0  0  0  0  0
   13.2946    7.3308    0.9356 C   0  0  0  0  0  0  0  0  0  0  0  0
   12.4194    4.2992    2.1996 H   0  0  0  0  0  0  0  0  0  0  0  0
   13.7866   16.5469    0.1323 O   0  0  0  0  0  0  0  0  0  0  0  0
   13.4097   15.8709    1.0761 C   0  0  0  0  0  0  0  0  0  0  0  0
   12.8584   16.4450    2.1549 O   0  0  0  0  0  0  0  0  0  0  0  0
   12.9267   17.4077    1.9947 H   0  0  0  0  0  0  0  0  0  0  0  0
   11.0234   11.8348   -0.1044 C   0  0  0  0  0  0  0  0  0  0  0  0
    9.6794   11.8654    0.5844 C   0  0  0  0  0  0  0  0  0  0  0  0
    9.9248   12.7420   -0.6022 C   0  0  0  0  0  0  0  0  0  0  0  0
 20 21  2  0  0  0
 21 22  1  0  0  0
 21  1  1  0  0  0
  1  2  2  0  0  0
  2  3  1  0  0  0
  3 24  1  0  0  0
 24 25  1  0  0  0
 25 26  1  0  0  0
  3  4  1  0  0  0
  4  5  2  0  0  0
  5  6  1  0  0  0
  6 13  1  0  0  0
 13 14  1  0  0  0
 14 15  1  0  0  0
 15 16  1  0  0  0
 16 17  1  0  0  0
 17 18  1  0  0  0
  6  7  2  0  0  0
  7  8  1  0  0  0
  7  9  1  0  0  0
  9 10  2  0  0  0
 10 11  1  0  0  0
 11 12  2  0  0  0
 11  1  1  0  0  0
 26 24  1  0  0  0
 10  4  1  0  0  0
 18 13  1  0  0  0
 22 23  1  0  0  0
 16 19  1  0  0  0
M  END
> <minimizedAffinity>
-7.37915

$$$$
decoy_chlorpromazine


 21 23  0  0  0  0  0  0  0  0999 V2000
   13.9042    9.7625    1.9404 N   0  0  0  0  0  0  0  0  0  0  0  0
   13.5962    8.4004    2.2306 C   0  0  0  0  0  0  0  0  0  0  0  0
   14.5544    7.3675    2.1120 C   0  0  0  0  0  0  0  0  0  0  0  0
   14.2592    6.0252    2.3819 C   0  0  0  0  0  0  0  0  0  0  0  0
   12.9843    5.6641    2.7803 C   0  0  0  0  0  0  0  0  0  0  0  0
   12.0122    6.6492    2.9046 C   0  0  0  0  0  0  0  0  0  0  0  0
   12.3052    8.0012    2.6321 C   0  0  0  0  0  0  0  0  0  0  0  0
   10.9549    9.1309    2.8693 S   0  0  0  0  0  0  0  0  0  0  0  0
   11.6032   10.6434    2.2021 C   0  0  0  0  0  0  0  0  0  0  0  0
   10.6703   11.6943    2.0836 C   0  0  0  0  0  0  0  0  0  0  0  0
   11.0493   12.9379    1.5919 C   0  0  0  0  0  0  0  0  0  0  0  0
   12.3666   13.1325    1.2161 C   0  0  0  0  0  0  0  0  0  0  0  0
   12.8596   14.6604    0.5941 Cl  0  0  0  0  0  0  0  0  0  0  0  0
   13.2998   12.0970    1.3326 C   0  0  0  0  0  0  0  0  0  0  0  0
   12.9538   10.8209    1.8341 C   0  0  0  0  0  0  0  0  0  0  0  0
   15.3411   10.1239    1.8329 C   0  0  0  0  0  0  0  0  0  0  0  0
   15.9110   10.5657    3.1899 C   0  0  0  0  0  0  0  0  0  0  0  0
   16.5032   11.9792    3.1368 C   0  0  0  0  0  0  0  0  0  0  0  0
   15.5631   14.1910    3.2791 C   0  0  0  0  0  0  0  0  0  0  0  0
   15.8156   12.9441    4.0097 N   0  0  0  0  0  0  0  0  0  0  0  0
   16.5964   13.2384    5.2151 C   0  0  0  0  0  0  0  0  0  0  0  0
 19 20  1  0  0  0
 20 21  1  0  0  0
 20 18  1  0  0  0
 18 17  1  0  0  0
 17 16  1  0  0  0
 16  1  1  0  0  0
  1  2  1  0  0  0
  2  3  2  0  0  0
  3  4  1  0  0  0
  4  5  2  0  0  0
  5  6  1  0  0  0
  6  7  2  0  0  0
  7  8  1  0  0  0
  8  9  1  0  0  0
  9 10  2  0  0  0
 10 11  1  0  0  0
 11 12  2  0  0  0
 12 13  1  0  0  0
 12 14  1  0  0  0
 14 15  2  0  0  0
 15  1  1  0  0  0
  7  2  1  0  0  0
 15  9  1  0  0  0
M  END
> <minimizedAffinity>
-6.36036

$$$$
decoy_celecoxib


 28 30  0  0  0  0  0  0  0  0999 V2000
   13.2270   10.3236    1.1671 C   0  0  0  0  0  0  0  0  0  0  0  0
   12.2932   11.0294    0.4307 C   0  0  0  0  0  0  0  0  0  0  0  0
   12.8604   12.2956    0.1790 C   0  0  0  0  0  0  0  0  0  0  0  0
   14.0856   12.3796    0.7210 N   0  0  0  0  0  0  0  0  0  0  0  0
   14.3506   11.1485    1.2484 N   0  0  0  0  0  0  0  0  0  0  0  0
   12.5232    5.1803    3.6933 C   0  0  0  0  0  0  0  0  0  0  0  0
   12.6826    6.5116    3.0200 C   0  0  0  0  0  0  0  0  0  0  0  0
   13.4576    6.6310    1.8607 C   0  0  0  0  0  0  0  0  0  0  0  0
   13.6327    7.8758    1.2509 C   0  0  0  0  0  0  0  0  0  0  0  0
   13.0339    9.0194    1.7925 C   0  0  0  0  0  0  0  0  0  0  0  0
   12.2856    8.9063    2.9694 C   0  0  0  0  0  0  0  0  0  0  0  0
   12.1110    7.6608    3.5781 C   0  0  0  0  0  0  0  0  0  0  0  0
   15.6648   10.8955    1.7607 C   0  0  0  0  0  0  0  0  0  0  0  0
   16.7763   11.1723    0.9405 C   0  0  0  0  0  0  0  0  0  0  0  0
   18.0782   10.9404    1.3938 C   0  0  0  0  0  0  0  0  0  0  0  0
   18.2780   10.4262    2.6744 C   0  0  0  0  0  0  0  0  0  0  0  0
   17.1882   10.1155    3.4893 C   0  0  0  0  0  0  0  0  0  0  0  0
   15.8853   10.3481    3.0319 C   0  0  0  0  0  0  0  0  0  0  0  0
   19.9210   10.1005    3.2404 S   0  0  0  0  0  0  0  0  0  0  0  0
   19.7248   10.1289    4.9076 N   0  0  0  0  0  0  0  0  0  0  0  0
   20.2794    8.7413    2.9085 O   0  0  0  0  0  0  0  0  0  0  0  0
   20.7674   11.2256    2.9197 O   0  0  0  0  0  0  0  0  0  0  0  0
   19.9488    9.2128    5.2968 H   0  0  0  0  0  0  0  0  0  0  0  0
   20.2741   10.8910    5.3061 H   0  0  0  0  0  0  0  0  0  0  0  0
   12.2138   13.4403   -0.5538 C   0  0  0  0  0  0  0  0  0  0  0  0
   13.1143   14.3672   -0.9750 F   0  0  0  0  0  0  0  0  0  0  0  0
   11.2968   14.0916    0.2097 F   0  0  0  0  0  0  0  0  0  0  0  0
   11.5526   13.0158   -1.6672 F   0  0  0  0  0  0  0  0  0  0  0  0
  6  7  1  0  0  0
  7  8  2  0  0  0
  8  9  1  0  0  0
  9 10  2  0  0  0
 10  1  1  0  0  0
  1  2  2  0  0  0
  2  3  1  0  0  0
  3 25  1  0  0  0
 25 26  1  0  0  0
 25 27  1  0  0  0
 25 28  1  0  0  0
  3  4  2  0  0  0
  4  5  1  0  0  0
  5 13  1  0  0  0
 13 14  2  0  0  0
 14 15  1  0  0  0
 15 16  2  0  0  0
 16 19  1  0  0  0
 19 20  1  0  0  0
 19 21  2  0  0  0
 19 22  2  0  0  0
 16 17  1  0  0  0
 17 18  2  0  0  0
 10 11  1  0  0  0
 11 12  2  0  0  0
 12  7  1  0  0  0
  5  1  1  0  0  0
 18 13  1  0  0  0
 20 23  1  0  0  0
 20 24  1  0  0  0
M  END
> <minimizedAffinity>
-7.91407

$$$$
decoy_captopril


 16 16  0  0  0  0  0  0  0  0999 V2000
   11.7138   10.0913    2.2196 C   0  0  0  0  0  0  0  0  0  0  0  0
   10.5209    9.8704    2.4383 O   0  0  0  0  0  0  0  0  0  0  0  0
   12.1191   11.2916    1.6751 N   0  0  0  0  0  0  0  0  0  0  0  0
   13.4656   11.8329    1.6059 C   0  0  0  0  0  0  0  0  0  0  0  0
   13.2579   13.3326    1.7356 C   0  0  0  0  0  0  0  0  0  0  0  0
   11.9424   13.5602    1.0047 C   0  0  0  0  0  0  0  0  0  0  0  0
   11.1176   12.3084    1.3254 C   0  0  0  0  0  0  0  0  0  0  0  0
   10.2498   11.9620    0.1128 C   0  0  0  0  0  0  0  0  0  0  0  0
   10.6373   11.9358   -1.0471 O   0  0  0  0  0  0  0  0  0  0  0  0
    8.9884   11.5815    0.4059 O   0  0  0  0  0  0  0  0  0  0  0  0
    8.5772   11.4337   -0.4704 H   0  0  0  0  0  0  0  0  0  0  0  0
   13.1009    8.2733    1.2140 C   0  0  0  0  0  0  0  0  0  0  0  0
   12.7823    9.0338    2.5043 C   0  0  0  0  0  0  0  0  0  0  0  0
   12.2740    8.0937    3.6103 C   0  0  0  0  0  0  0  0  0  0  0  0
   12.3792    6.3322    3.1468 S   0  0  0  0  0  0  0  0  0  0  0  0
   13.7177    6.2616    3.1059 H   0  0  0  0  0  0  0  0  0  0  0  0
 12 13  1  0  0  0
 13 14  1  0  0  0
 14 15  1  0  0  0
 13  1  1  0  0  0
  1  2  2  0  0  0
  1  3  1  0  0  0
  3  4  1  0  0  0
  4  5  1  0  0  0
  5  6  1  0  0  0
  6  7  1  0  0  0
  7  8  1  0  0  0
  8  9  2  0  0  0
  8 10  1  0  0  0
  7  3  1  0  0  0
 15 16  1  0  0  0
 10 11  1  0  0  0
M  END
> <minimizedAffinity>
-5.00719

$$$$
decoy_caffeine


 14 15  0  0  0  0  0  0  0  0999 V2000
   10.2225   12.5319    1.7213 C   0  0  0  0  0  0  0  0  0  0  0  0
   10.6460   11.2116    2.1128 N   0  0  0  0  0  0  0  0  0  0  0  0
    9.8336   10.1949    2.5408 C   0  0  0  0  0  0  0  0  0  0  0  0
   10.5236    9.1081    2.8253 N   0  0  0  0  0  0  0  0  0  0  0  0
   11.8166    9.4506    2.5677 C   0  0  0  0  0  0  0  0  0  0  0  0
   11.9254   10.7352    2.1289 C   0  0  0  0  0  0  0  0  0  0  0  0
   13.1659   11.3401    1.7899 C   0  0  0  0  0  0  0  0  0  0  0  0
   13.2530   12.4991    1.3952 O   0  0  0  0  0  0  0  0  0  0  0  0
   14.2524   10.4763    1.9561 N   0  0  0  0  0  0  0  0  0  0  0  0
   15.5767   10.9760    1.6429 C   0  0  0  0  0  0  0  0  0  0  0  0
   14.1806    9.1416    2.4076 C   0  0  0  0  0  0  0  0  0  0  0  0
   15.2007    8.4553    2.5222 O   0  0  0  0  0  0  0  0  0  0  0  0
   12.9157    8.6396    2.7150 N   0  0  0  0  0  0  0  0  0  0  0  0
   12.7553    7.2760    3.1858 C   0  0  0  0  0  0  0  0  0  0  0  0
  1  2  1  0  0  0
  2  3  1  0  0  0
  3  4  2  0  0  0
  4  5  1  0  0  0
  5  6  2  0  0  0
  6  7  1  0  0  0
  7  8  2  0  0  0
  7  9  1  0  0  0
  9 10  1  0  0  0
  9 11  1  0  0  0
 11 12  2  0  0  0
 11 13  1  0  0  0
 13 14  1  0  0  0
  6  2  1  0  0  0
 13  5  1  0  0  0
M  END
> <minimizedAffinity>
-4.86846

$$$$
decoy_atenolol


 23 23  0  0  0  0  0  0  0  0999 V2000
   11.9938   10.9016    1.9402 C   0  0  0  0  0  0  0  0  0  0  0  0
   11.0237   10.1901    2.6428 C   0  0  0  0  0  0  0  0  0  0  0  0
   11.2001    8.8264    2.9010 C   0  0  0  0  0  0  0  0  0  0  0  0
   12.3469    8.1559    2.4553 C   0  0  0  0  0  0  0  0  0  0  0  0
   13.3179    8.8752    1.7477 C   0  0  0  0  0  0  0  0  0  0  0  0
   13.1371   10.2360    1.4928 C   0  0  0  0  0  0  0  0  0  0  0  0
   11.9470   12.2314    1.6243 O   0  0  0  0  0  0  0  0  0  0  0  0
   10.6670   12.7681    1.2627 C   0  0  0  0  0  0  0  0  0  0  0  0
   10.3112   12.2158   -0.1236 C   0  0  0  0  0  0  0  0  0  0  0  0
    8.8856   12.1342   -0.2627 O   0  0  0  0  0  0  0  0  0  0  0  0
    8.5542   11.7526    0.5702 H   0  0  0  0  0  0  0  0  0  0  0  0
   10.9112   13.0407   -1.2834 C   0  0  0  0  0  0  0  0  0  0  0  0
   11.0895   12.2836   -2.5315 N   0  0  0  0  0  0  0  0  0  0  0  0
   11.1603   12.9147   -3.3273 H   0  0  0  0  0  0  0  0  0  0  0  0
   13.4664   12.0084   -1.8244 C   0  0  0  0  0  0  0  0  0  0  0  0
   12.2489   11.3821   -2.5076 C   0  0  0  0  0  0  0  0  0  0  0  0
   12.5945   11.0236   -3.9546 C   0  0  0  0  0  0  0  0  0  0  0  0
   12.5290    6.6840    2.7351 C   0  0  0  0  0  0  0  0  0  0  0  0
   11.8914    5.7990    1.6831 C   0  0  0  0  0  0  0  0  0  0  0  0
   12.7007    5.4462    0.6398 N   0  0  0  0  0  0  0  0  0  0  0  0
   10.7355    5.3934    1.7488 O   0  0  0  0  0  0  0  0  0  0  0  0
   13.4725    6.0486    0.3838 H   0  0  0  0  0  0  0  0  0  0  0  0
   12.2394    4.9542   -0.1147 H   0  0  0  0  0  0  0  0  0  0  0  0
 15 16  1  0  0  0
 16 17  1  0  0  0
 16 13  1  0  0  0
 13 12  1  0  0  0
 12  9  1  0  0  0
  9 10  1  0  0  0
  9  8  1  0  0  0
  8  7  1  0  0  0
  7  1  1  0  0  0
  1  2  2  0  0  0
  2  3  1  0  0  0
  3  4  2  0  0  0
  4 18  1  0  0  0
 18 19  1  0  0  0
 19 20  1  0  0  0
 19 21  2  0  0  0
  4  5  1  0  0  0
  5  6  2  0  0  0
  6  1  1  0  0  0
 13 14  1  0  0  0
 10 11  1  0  0  0
 20 22  1  0  0  0
 20 23  1  0  0  0
M  END
> <minimizedAffinity>
-6.91098

$$$$
decoy_aspirin


 14 14  0  0  0  0  0  0  0  0999 V2000
   12.1119   11.2714    0.4560 C   0  0  0  0  0  0  0  0  0  0  0  0
   13.2603   11.1636    1.2504 C   0  0  0  0  0  0  0  0  0  0  0  0
   14.4440   11.7793    0.8478 C   0  0  0  0  0  0  0  0  0  0  0  0
   14.4787   12.5093   -0.3385 C   0  0  0  0  0  0  0  0  0  0  0  0
   13.3259   12.6313   -1.1199 C   0  0  0  0  0  0  0  0  0  0  0  0
   12.1223   12.0216   -0.7277 C   0  0  0  0  0  0  0  0  0  0  0  0
   10.9502   12.2361   -1.6129 C   0  0  0  0  0  0  0  0  0  0  0  0
   11.0063   12.4235   -2.8163 O   0  0  0  0  0  0  0  0  0  0  0  0
    9.7625   12.2502   -0.9846 O   0  0  0  0  0  0  0  0  0  0  0  0
    9.1270   12.4161   -1.7127 H   0  0  0  0  0  0  0  0  0  0  0  0
   10.9647   10.6410    0.9436 O   0  0  0  0  0  0  0  0  0  0  0  0
   10.1332   10.2101    3.0990 C   0  0  0  0  0  0  0  0  0  0  0  0
   10.4570   11.2607    2.0792 C   0  0  0  0  0  0  0  0  0  0  0  0
   10.2798   12.4606    2.2442 O   0  0  0  0  0  0  0  0  0  0  0  0
 12 13  1  0  0  0
 13 14  2  0  0  0
 13 11  1  0  0  0
 11  1  1  0  0  0
  1  2  2  0  0  0
  2  3  1  0  0  0
  3  4  2  0  0  0
  4  5  1  0  0  0
  5  6  2  0  0  0
  6  7  1  0  0  0
  7  8  2  0  0  0
  7  9  1  0  0  0
  6  1  1  0  0  0
  9 10  1  0  0  0
M  END
> <minimizedAffinity>
-5.29453

$$$$
decoy_amlodipine


 31 32  0  0  0  0  0  0  0  0999 V2000
   14.4482   12.3811    1.8575 C   0  0  0  0  0  0  0  0  0  0  0  0
   15.6814   11.8323    1.9548 C   0  0  0  0  0  0  0  0  0  0  0  0
   15.8133   10.4510    2.0376 N   0  0  0  0  0  0  0  0  0  0  0  0
   14.7569    9.5689    2.1784 C   0  0  0  0  0  0  0  0  0  0  0  0
   15.1263    8.1454    2.5045 C   0  0  0  0  0  0  0  0  0  0  0  0
   13.4921   10.0312    2.0611 C   0  0  0  0  0  0  0  0  0  0  0  0
   13.1922   11.5070    1.8046 C   0  0  0  0  0  0  0  0  0  0  0  0
   16.7529   10.1386    2.2939 H   0  0  0  0  0  0  0  0  0  0  0  0
   12.4587   11.6865    0.4674 C   0  0  0  0  0  0  0  0  0  0  0  0
   13.1400   11.3914   -0.7343 C   0  0  0  0  0  0  0  0  0  0  0  0
   12.5192   11.5411   -1.9756 C   0  0  0  0  0  0  0  0  0  0  0  0
   11.2038   11.9851   -2.0452 C   0  0  0  0  0  0  0  0  0  0  0  0
   10.5095   12.2766   -0.8723 C   0  0  0  0  0  0  0  0  0  0  0  0
   11.1269   12.1289    0.3761 C   0  0  0  0  0  0  0  0  0  0  0  0
   10.1721   12.5136    1.7634 Cl  0  0  0  0  0  0  0  0  0  0  0  0
   14.2862   13.8510    1.7736 C   0  0  0  0  0  0  0  0  0  0  0  0
   13.8565   14.5482    2.6801 O   0  0  0  0  0  0  0  0  0  0  0  0
   14.6551   14.2836    0.5452 O   0  0  0  0  0  0  0  0  0  0  0  0
   14.2109   16.4850   -0.3575 C   0  0  0  0  0  0  0  0  0  0  0  0
   13.6893   15.0744   -0.1617 C   0  0  0  0  0  0  0  0  0  0  0  0
   12.3049    9.1702    2.2226 C   0  0  0  0  0  0  0  0  0  0  0  0
   11.3519    9.4606    2.9277 O   0  0  0  0  0  0  0  0  0  0  0  0
   12.4175    8.0723    1.4333 O   0  0  0  0  0  0  0  0  0  0  0  0
   11.8929    6.8844    2.0257 C   0  0  0  0  0  0  0  0  0  0  0  0
   16.9723   12.6335    2.0213 C   0  0  0  0  0  0  0  0  0  0  0  0
   17.5038   12.5364    3.3553 O   0  0  0  0  0  0  0  0  0  0  0  0
   17.3127   13.7364    4.1141 C   0  0  0  0  0  0  0  0  0  0  0  0
   16.3746   13.5306    5.3135 C   0  0  0  0  0  0  0  0  0  0  0  0
   15.2516   14.4733    5.3030 N   0  0  0  0  0  0  0  0  0  0  0  0
   14.7965   14.4036    4.3896 H   0  0  0  0  0  0  0  0  0  0  0  0
   15.6156   15.4256    5.3356 H   0  0  0  0  0  0  0  0  0  0  0  0
 19 20  1  0  0  0
 20 18  1  0  0  0
 18 16  1  0  0  0
 16 17  2  0  0  0
 16  1  1  0  0  0
  1  2  2  0  0  0
  2 25  1  0  0  0
 25 26  1  0  0  0
 26 27  1  0  0  0
 27 28  1  0  0  0
 28 29  1  0  0  0
  2  3  1  0  0  0
  3  4  1  0  0  0
  4  5  1  0  0  0
  4  6  2  0  0  0
  6 21  1  0  0  0
 21 22  2  0  0  0
 21 23  1  0  0  0
 23 24  1  0  0  0
  6  7  1  0  0  0
  7  9  1  0  0  0
  9 10  2  0  0  0
 10 11  1  0  0  0
 11 12  2  0  0  0
 12 13  1  0  0  0
 13 14  2  0  0  0
 14 15  1  0  0  0
  7  1  1  0  0  0
 14  9  1  0  0  0
 29 30  1  0  0  0
 29 31  1  0  0  0
  3  8  1  0  0  0
M  END
> <minimizedAffinity>
-5.98501

$$$$
decoy_albendazole


 20 21  0  0  0  0  0  0  0  0999 V2000
   11.4450   12.0510    1.6145 C   0  0  0  0  0  0  0  0  0  0  0  0
   10.3159   11.6299    2.3311 C   0  0  0  0  0  0  0  0  0  0  0  0
   10.2170   10.3347    2.8558 C   0  0  0  0  0  0  0  0  0  0  0  0
   11.2968    9.4851    2.6192 C   0  0  0  0  0  0  0  0  0  0  0  0
   11.5448    8.1839    2.9677 N   0  0  0  0  0  0  0  0  0  0  0  0
   12.7722    7.8310    2.4661 C   0  0  0  0  0  0  0  0  0  0  0  0
   13.3269    8.8281    1.8174 N   0  0  0  0  0  0  0  0  0  0  0  0
   12.4254    9.8638    1.9010 C   0  0  0  0  0  0  0  0  0  0  0  0
   12.5057   11.1639    1.3811 C   0  0  0  0  0  0  0  0  0  0  0  0
   10.9452    7.5652    3.4985 H   0  0  0  0  0  0  0  0  0  0  0  0
   13.3399    6.5978    2.6235 N   0  0  0  0  0  0  0  0  0  0  0  0
   12.6198    5.4421    2.6627 C   0  0  0  0  0  0  0  0  0  0  0  0
   11.4016    5.3488    2.5677 O   0  0  0  0  0  0  0  0  0  0  0  0
   14.3437    6.5541    2.7118 H   0  0  0  0  0  0  0  0  0  0  0  0
   13.4660    4.3928    2.8257 O   0  0  0  0  0  0  0  0  0  0  0  0
   14.8384    4.7634    2.9656 C   0  0  0  0  0  0  0  0  0  0  0  0
   11.4791   13.7203    0.9745 S   0  0  0  0  0  0  0  0  0  0  0  0
   10.2760   13.5880   -0.3953 C   0  0  0  0  0  0  0  0  0  0  0  0
   11.3788   12.1389   -2.1277 C   0  0  0  0  0  0  0  0  0  0  0  0
   10.3094   12.2073   -1.0470 C   0  0  0  0  0  0  0  0  0  0  0  0
 19 20  1  0  0  0
 20 18  1  0  0  0
 18 17  1  0  0  0
 17  1  1  0  0  0
  1  2  2  0  0  0
  2  3  1  0  0  0
  3  4  2  0  0  0
  4  5  1  0  0  0
  5  6  1  0  0  0
  6 11  1  0  0  0
 11 12  1  0  0  0
 12 13  2  0  0  0
 12 15  1  0  0  0
 15 16  1  0  0  0
  6  7  2  0  0  0
  7  8  1  0  0  0
  8  9  2  0  0  0
  9  1  1  0  0  0
  8  4  1  0  0  0
  5 10  1  0  0  0
 11 14  1  0  0  0
M  END
> <minimizedAffinity>
-6.04419

$$$$
decoy_acetaminophen


 13 13  0  0  0  0  0  0  0  0999 V2000
   11.9954    9.0517    2.4608 C   0  0  0  0  0  0  0  0  0  0  0  0
   12.5448   10.0161    1.6046 C   0  0  0  0  0  0  0  0  0  0  0  0
   11.8800   11.2226    1.3709 C   0  0  0  0  0  0  0  0  0  0  0  0
   10.6638   11.4677    1.9926 C   0  0  0  0  0  0  0  0  0  0  0  0
   10.0469   12.6559    1.7392 O   0  0  0  0  0  0  0  0  0  0  0  0
   10.1018   10.5247    2.8443 C   0  0  0  0  0  0  0  0  0  0  0  0
   10.7696    9.3166    3.0768 C   0  0  0  0  0  0  0  0  0  0  0  0
    9.2152   12.6841    2.2404 H   0  0  0  0  0  0  0  0  0  0  0  0
   13.3548    5.5474    2.7873 C   0  0  0  0  0  0  0  0  0  0  0  0
   12.2737    6.5619    2.5066 C   0  0  0  0  0  0  0  0  0  0  0  0
   11.1373    6.2023    2.2213 O   0  0  0  0  0  0  0  0  0  0  0  0
   12.7287    7.8609    2.6425 N   0  0  0  0  0  0  0  0  0  0  0  0
   13.6976    7.9776    2.9107 H   0  0  0  0  0  0  0  0  0  0  0  0
  9 10  1  0  0  0
 10 11  2  0  0  0
 10 12  1  0  0  0
 12  1  1  0  0  0
  1  2  2  0  0  0
  2  3  1  0  0  0
  3  4  2  0  0  0
  4  5  1  0  0  0
  4  6  1  0  0  0
  6  7  2  0  0  0
  7  1  1  0  0  0
 12 13  1  0  0  0
  5  8  1  0  0  0
M  END
> <minimizedAffinity>
-5.51243

$$$$
