decoy_warfarin


 24 26  0  0  0  0  0  0  0  0999 V2000
   85.6920  106.2768   17.9267 C   0  0  0  0  0  0  0  0  0  0  0  0
   85.5426  105.1779   17.1641 C   0  0  0  0  0  0  0  0  0  0  0  0
   85.6759  103.9156   17.7114 O   0  0  0  0  0  0  0  0  0  0  0  0
   85.1909  105.2664   15.7448 C   0  0  0  0  0  0  0  0  0  0  0  0
   85.1546  104.1748   14.8663 C   0  0  0  0  0  0  0  0  0  0  0  0
   84.7855  104.3485   13.5266 C   0  0  0  0  0  0  0  0  0  0  0  0
   84.4588  105.6155   13.0453 C   0  0  0  0  0  0  0  0  0  0  0  0
   84.5169  106.7128   13.8986 C   0  0  0  0  0  0  0  0  0  0  0  0
   84.8903  106.5222   15.2290 C   0  0  0  0  0  0  0  0  0  0  0  0
   84.9869  107.6709   16.0286 O   0  0  0  0  0  0  0  0  0  0  0  0
   85.4725  107.6187   17.3279 C   0  0  0  0  0  0  0  0  0  0  0  0
   85.6871  108.6571   17.9440 O   0  0  0  0  0  0  0  0  0  0  0  0
   85.0611  103.3141   17.2586 H   0  0  0  0  0  0  0  0  0  0  0  0
   86.0659  106.1952   19.4066 C   0  0  0  0  0  0  0  0  0  0  0  0
   84.8320  105.9894   20.2872 C   0  0  0  0  0  0  0  0  0  0  0  0
   84.3127  104.7176   20.5738 C   0  0  0  0  0  0  0  0  0  0  0  0
   83.1871  104.5728   21.3882 C   0  0  0  0  0  0  0  0  0  0  0  0
   82.5662  105.6946   21.9311 C   0  0  0  0  0  0  0  0  0  0  0  0
   83.0721  106.9635   21.6640 C   0  0  0  0  0  0  0  0  0  0  0  0
   84.1978  107.1099   20.8515 C   0  0  0  0  0  0  0  0  0  0  0  0
   86.9905  107.3262   19.8980 C   0  0  0  0  0  0  0  0  0  0  0  0
   88.5081  105.4499   20.8232 C   0  0  0  0  0  0  0  0  0  0  0  0
   88.3860  106.8015   20.1701 C   0  0  0  0  0  0  0  0  0  0  0  0
   89.3841  107.4450   19.8431 O   0  0  0  0  0  0  0  0  0  0  0  0
 22 23  1  0  0  0
 23 24  2  0  0  0
 23 21  1  0  0  0
 21 14  1  0  0  0
 14 15  1  0  0  0
 15 16  2  0  0  0
 16 17  1  0  0  0
 17 18  2  0  0  0
 18 19  1  0  0  0
 19 20  2  0  0  0
 14  1  1  0  0  0
  1  2  2  0  0  0
  2  3  1  0  0  0
  2  4  1  0  0  0
  4  5  2  0  0  0
  5  6  1  0  0  0
  6  7  2  0  0  0
  7  8  1  0  0  0
  8  9  2  0  0  0
  9 10  1  0  0  0
 10 11  1  0  0  0
 11 12  2  0  0  0
 20 15  1  0  0  0
 11  1  1  0  0  0
  9  4  1  0  0  0
  3 13  1  0  0  0
M  END
> <minimizedAffinity>
-7.31370

$$$$
decoy_verapamil


 33 34  0  0  0  0  0  0  0  0999 V2000
   87.2982  106.2224   20.0006 C   0  0  0  0  0  0  0  0  0  0  0  0
   87.8090  107.6481   19.7190 C   0  0  0  0  0  0  0  0  0  0  0  0
   88.4743  108.3026   20.9435 C   0  0  0  0  0  0  0  0  0  0  0  0
   89.7301  108.9986   20.6327 N   0  0  0  0  0  0  0  0  0  0  0  0
   89.5410  110.1237   19.7203 C   0  0  0  0  0  0  0  0  0  0  0  0
   90.7809  108.0739   20.1639 C   0  0  0  0  0  0  0  0  0  0  0  0
   91.6250  107.3749   21.2456 C   0  0  0  0  0  0  0  0  0  0  0  0
   90.8736  103.1129   21.2941 C   0  0  0  0  0  0  0  0  0  0  0  0
   91.9121  103.6415   20.5209 C   0  0  0  0  0  0  0  0  0  0  0  0
   92.1532  105.0170   20.5104 C   0  0  0  0  0  0  0  0  0  0  0  0
   91.3685  105.8844   21.2776 C   0  0  0  0  0  0  0  0  0  0  0  0
   90.3264  105.3552   22.0548 C   0  0  0  0  0  0  0  0  0  0  0  0
   90.0740  103.9768   22.0693 C   0  0  0  0  0  0  0  0  0  0  0  0
   91.4712  100.9281   22.0569 C   0  0  0  0  0  0  0  0  0  0  0  0
   90.5643  101.7767   21.3654 O   0  0  0  0  0  0  0  0  0  0  0  0
   89.0766  103.3781   22.8012 O   0  0  0  0  0  0  0  0  0  0  0  0
   88.9801  103.7098   24.1773 C   0  0  0  0  0  0  0  0  0  0  0  0
   85.7894  105.9216   19.6771 C   0  0  0  0  0  0  0  0  0  0  0  0
   85.4957  105.8473   18.1510 C   0  0  0  0  0  0  0  0  0  0  0  0
   85.1152  106.9944   17.4264 C   0  0  0  0  0  0  0  0  0  0  0  0
   84.8092  106.9382   16.0582 C   0  0  0  0  0  0  0  0  0  0  0  0
   84.8443  105.7271   15.3712 C   0  0  0  0  0  0  0  0  0  0  0  0
   85.1695  104.5640   16.0804 C   0  0  0  0  0  0  0  0  0  0  0  0
   85.4958  104.6286   17.4453 C   0  0  0  0  0  0  0  0  0  0  0  0
   84.5607  105.5705   14.0383 O   0  0  0  0  0  0  0  0  0  0  0  0
   85.5322  106.0313   13.1086 C   0  0  0  0  0  0  0  0  0  0  0  0
   85.2029  103.3810   15.3800 O   0  0  0  0  0  0  0  0  0  0  0  0
   83.9175  102.8353   15.0941 C   0  0  0  0  0  0  0  0  0  0  0  0
   85.2592  104.6682   20.5136 C   0  0  0  0  0  0  0  0  0  0  0  0
   85.9164  104.4686   21.8866 C   0  0  0  0  0  0  0  0  0  0  0  0
   83.7301  104.6489   20.7330 C   0  0  0  0  0  0  0  0  0  0  0  0
   85.0130  107.1131   20.1674 C   0  0  0  0  0  0  0  0  0  0  0  0
   84.4051  108.0288   20.5421 N   0  0  0  0  0  0  0  0  0  0  0  0
 14 15  1  0  0  0
 15  8  1  0  0  0
  8  9  2  0  0  0
  9 10  1  0  0  0
 10 11  2  0  0  0
 11  7  1  0  0  0
  7  6  1  0  0  0
  6  4  1  0  0  0
  4  5  1  0  0  0
  4  3  1  0  0  0
  3  2  1  0  0  0
  2  1  1  0  0  0
  1 18  1  0  0  0
 18 32  1  0  0  0
 32 33  3  0  0  0
 18 29  1  0  0  0
 29 30  1  0  0  0
 29 31  1  0  0  0
 18 19  1  0  0  0
 19 20  2  0  0  0
 20 21  1  0  0  0
 21 22  2  0  0  0
 22 25  1  0  0  0
 25 26  1  0  0  0
 22 23  1  0  0  0
 23 27  1  0  0  0
 27 28  1  0  0  0
 23 24  2  0  0  0
 11 12  1  0  0  0
 12 13  2  0  0  0
 13 16  1  0  0  0
 16 17  1  0  0  0
 13  8  1  0  0  0
 24 19  1  0  0  0
M  END
> <minimizedAffinity>
-6.30699

$$$$
decoy_trimethoprim


 25 26  0  0  0  0  0  0  0  0999 V2000
   91.8103  105.5806   22.9956 C   0  0  0  0  0  0  0  0  0  0  0  0
   91.7475  104.1330   22.6071 C   0  0  0  0  0  0  0  0  0  0  0  0
   90.8009  103.2921   23.1590 C   0  0  0  0  0  0  0  0  0  0  0  0
   90.6993  101.9816   22.8738 N   0  0  0  0  0  0  0  0  0  0  0  0
   91.5887  101.4998   22.0058 C   0  0  0  0  0  0  0  0  0  0  0  0
   91.5249  100.1516   21.7135 N   0  0  0  0  0  0  0  0  0  0  0  0
   92.5612  102.2127   21.4314 N   0  0  0  0  0  0  0  0  0  0  0  0
   92.6197  103.5189   21.7275 C   0  0  0  0  0  0  0  0  0  0  0  0
   93.6577  104.2160   21.1044 N   0  0  0  0  0  0  0  0  0  0  0  0
   91.0802   99.6658   22.4806 H   0  0  0  0  0  0  0  0  0  0  0  0
   92.4384   99.8259   21.4296 H   0  0  0  0  0  0  0  0  0  0  0  0
   93.3094  105.0062   20.5717 H   0  0  0  0  0  0  0  0  0  0  0  0
   94.1264  103.5481   20.4933 H   0  0  0  0  0  0  0  0  0  0  0  0
   91.3529  108.5544   20.6558 C   0  0  0  0  0  0  0  0  0  0  0  0
   91.8938  107.6971   21.6132 C   0  0  0  0  0  0  0  0  0  0  0  0
   91.2256  106.5166   21.9619 C   0  0  0  0  0  0  0  0  0  0  0  0
   89.9990  106.2136   21.3413 C   0  0  0  0  0  0  0  0  0  0  0  0
   89.4390  107.0767   20.3926 C   0  0  0  0  0  0  0  0  0  0  0  0
   90.1116  108.2675   20.0758 C   0  0  0  0  0  0  0  0  0  0  0  0
   92.2720  110.4612   21.5743 C   0  0  0  0  0  0  0  0  0  0  0  0
   92.0560  109.7001   20.3854 O   0  0  0  0  0  0  0  0  0  0  0  0
   88.2454  106.8643   19.7521 O   0  0  0  0  0  0  0  0  0  0  0  0
   87.4683  105.7549   20.1839 C   0  0  0  0  0  0  0  0  0  0  0  0
   89.5631  109.1301   19.1562 O   0  0  0  0  0  0  0  0  0  0  0  0
   88.8006  110.1296   19.8341 C   0  0  0  0  0  0  0  0  0  0  0  0
 20 21  1  0  0  0
 21 14  1  0  0  0
 14 15  2  0  0  0
 15 16  1  0  0  0
 16  1  1  0  0  0
  1  2  1  0  0  0
  2  3  2  0  0  0
  3  4  1  0  0  0
  4  5  2  0  0  0
  5  6  1  0  0  0
  5  7  1  0  0  0
  7  8  2  0  0  0
  8  9  1  0  0  0
 16 17  2  0  0  0
 17 18  1  0  0  0
 18 22  1  0  0  0
 22 23  1  0  0  0
 18 19  2  0  0  0
 19 24  1  0  0  0
 24 25  1  0  0  0
 19 14  1  0  0  0
  8  2  1  0  0  0
  6 10  1  0  0  0
  6 11  1  0  0  0
  9 12  1  0  0  0
  9 13  1  0  0  0
M  END
> <minimizedAffinity>
-5.99269

$$$$
decoy_tolbutamide


 20 20  0  0  0  0  0  0  0  0999 V2000
   82.8031  105.7418   20.5391 N   0  0  0  0  0  0  0  0  0  0  0  0
   84.0425  105.6983   19.9688 C   0  0  0  0  0  0  0  0  0  0  0  0
   84.9321  104.9453   20.3265 O   0  0  0  0  0  0  0  0  0  0  0  0
   84.1685  106.6016   18.9299 N   0  0  0  0  0  0  0  0  0  0  0  0
   82.1787  106.4881   20.2788 H   0  0  0  0  0  0  0  0  0  0  0  0
   83.3866  107.1496   18.6020 H   0  0  0  0  0  0  0  0  0  0  0  0
   85.5501  106.8503   18.0428 S   0  0  0  0  0  0  0  0  0  0  0  0
   86.6936  106.3507   18.7722 O   0  0  0  0  0  0  0  0  0  0  0  0
   85.4881  108.2410   17.6361 O   0  0  0  0  0  0  0  0  0  0  0  0
   85.2997  105.8641   16.5897 C   0  0  0  0  0  0  0  0  0  0  0  0
   85.1806  104.4778   16.7041 C   0  0  0  0  0  0  0  0  0  0  0  0
   85.0164  103.7027   15.5548 C   0  0  0  0  0  0  0  0  0  0  0  0
   84.9751  104.3058   14.2904 C   0  0  0  0  0  0  0  0  0  0  0  0
   84.8353  103.4645   13.0556 C   0  0  0  0  0  0  0  0  0  0  0  0
   85.1287  105.6951   14.1873 C   0  0  0  0  0  0  0  0  0  0  0  0
   85.2907  106.4762   15.3332 C   0  0  0  0  0  0  0  0  0  0  0  0
   82.4720  104.9439   21.7013 C   0  0  0  0  0  0  0  0  0  0  0  0
   82.4163  105.7931   22.9694 C   0  0  0  0  0  0  0  0  0  0  0  0
   83.1900  103.5877   23.9104 C   0  0  0  0  0  0  0  0  0  0  0  0
   83.0987  105.0877   24.1402 C   0  0  0  0  0  0  0  0  0  0  0  0
 19 20  1  0  0  0
 20 18  1  0  0  0
 18 17  1  0  0  0
 17  1  1  0  0  0
  1  2  1  0  0  0
  2  3  2  0  0  0
  2  4  1  0  0  0
  4  7  1  0  0  0
  7  8  2  0  0  0
  7  9  2  0  0  0
  7 10  1  0  0  0
 10 11  2  0  0  0
 11 12  1  0  0  0
 12 13  2  0  0  0
 13 14  1  0  0  0
 13 15  1  0  0  0
 15 16  2  0  0  0
 16 10  1  0  0  0
  1  5  1  0  0  0
  4  6  1  0  0  0
M  END
> <minimizedAffinity>
-6.50951

$$$$
decoy_theophylline


 14 15  0  0  0  0  0  0  0  0999 V2000
   92.3666  102.3113   20.5365 C   0  0  0  0  0  0  0  0  0  0  0  0
   92.3448  103.1458   21.7215 N   0  0  0  0  0  0  0  0  0  0  0  0
   93.0688  104.3404   21.6985 C   0  0  0  0  0  0  0  0  0  0  0  0
   93.7297  104.7481   20.7490 O   0  0  0  0  0  0  0  0  0  0  0  0
   92.9665  105.0621   22.9135 C   0  0  0  0  0  0  0  0  0  0  0  0
   93.5137  106.2536   23.2887 N   0  0  0  0  0  0  0  0  0  0  0  0
   93.0923  106.4916   24.5717 C   0  0  0  0  0  0  0  0  0  0  0  0
   92.3170  105.5233   25.0192 N   0  0  0  0  0  0  0  0  0  0  0  0
   92.2441  104.6408   23.9845 C   0  0  0  0  0  0  0  0  0  0  0  0
   91.5471  103.4575   23.9613 N   0  0  0  0  0  0  0  0  0  0  0  0
   90.7859  103.0382   25.1236 C   0  0  0  0  0  0  0  0  0  0  0  0
   91.5812  102.6678   22.8092 C   0  0  0  0  0  0  0  0  0  0  0  0
   90.9733  101.5958   22.7345 O   0  0  0  0  0  0  0  0  0  0  0  0
   94.1134  106.8421   22.7243 H   0  0  0  0  0  0  0  0  0  0  0  0
  1  2  1  0  0  0
  2  3  1  0  0  0
  3  4  2  0  0  0
  3  5  1  0  0  0
  5  6  1  0  0  0
  6  7  1  0  0  0
  7  8  2  0  0  0
  8  9  1  0  0  0
  9 10  1  0  0  0
 10 11  1  0  0  0
 10 12  1  0  0  0
 12 13  2  0  0  0
 12  2  1  0  0  0
  9  5  2  0  0  0
  6 14  1  0  0  0
M  END
> <minimizedAffinity>
-5.00404

$$$$
decoy_sertraline


 21 23  0  0  0  0  0  0  0  0999 V2000
   86.4684  107.4005   21.1890 C   0  0  0  0  0  0  0  0  0  0  0  0
   87.3384  107.0229   19.9761 C   0  0  0  0  0  0  0  0  0  0  0  0
   87.2396  105.5327   19.6719 C   0  0  0  0  0  0  0  0  0  0  0  0
   85.8048  105.1264   19.2976 C   0  0  0  0  0  0  0  0  0  0  0  0
   84.7845  105.6792   20.2815 C   0  0  0  0  0  0  0  0  0  0  0  0
   83.5018  105.0973   20.3184 C   0  0  0  0  0  0  0  0  0  0  0  0
   82.5289  105.5607   21.2014 C   0  0  0  0  0  0  0  0  0  0  0  0
   82.8241  106.6074   22.0657 C   0  0  0  0  0  0  0  0  0  0  0  0
   84.0897  107.1935   22.0411 C   0  0  0  0  0  0  0  0  0  0  0  0
   85.0833  106.7573   21.1422 C   0  0  0  0  0  0  0  0  0  0  0  0
   85.5030  105.4435   17.8322 C   0  0  0  0  0  0  0  0  0  0  0  0
   85.4651  106.7547   17.3336 C   0  0  0  0  0  0  0  0  0  0  0  0
   85.2004  106.9998   15.9830 C   0  0  0  0  0  0  0  0  0  0  0  0
   84.9740  105.9382   15.1048 C   0  0  0  0  0  0  0  0  0  0  0  0
   84.6547  106.3157   13.4496 Cl  0  0  0  0  0  0  0  0  0  0  0  0
   85.0140  104.6257   15.5821 C   0  0  0  0  0  0  0  0  0  0  0  0
   84.7497  103.2583   14.5587 Cl  0  0  0  0  0  0  0  0  0  0  0  0
   85.2783  104.3832   16.9355 C   0  0  0  0  0  0  0  0  0  0  0  0
   86.3403  109.5601   20.0405 C   0  0  0  0  0  0  0  0  0  0  0  0
   86.3576  108.8628   21.3159 N   0  0  0  0  0  0  0  0  0  0  0  0
   85.5241  109.0932   21.8543 H   0  0  0  0  0  0  0  0  0  0  0  0
 19 20  1  0  0  0
 20  1  1  0  0  0
  1  2  1  0  0  0
  2  3  1  0  0  0
  3  4  1  0  0  0
  4 11  1  0  0  0
 11 12  2  0  0  0
 12 13  1  0  0  0
 13 14  2  0  0  0
 14 15  1  0  0  0
 14 16  1  0  0  0
 16 17  1  0  0  0
 16 18  2  0  0  0
  4  5  1  0  0  0
  5  6  2  0  0  0
  6  7  1  0  0  0
  7  8  2  0  0  0
  8  9  1  0  0  0
  9 10  2  0  0  0
 10  1  1  0  0  0
 18 11  1  0  0  0
 10  5  1  0  0  0
 20 21  1  0  0  0
M  END
> <minimizedAffinity>
-6.84511

$$$$
decoy_salbutamol


 21 21  0  0  0  0  0  0  0  0999 V2000
   85.3228  105.7326   17.0138 C   0  0  0  0  0  0  0  0  0  0  0  0
   85.2801  106.9472   16.3178 C   0  0  0  0  0  0  0  0  0  0  0  0
   85.0034  106.9652   14.9528 C   0  0  0  0  0  0  0  0  0  0  0  0
   84.7680  105.7734   14.2682 C   0  0  0  0  0  0  0  0  0  0  0  0
   84.5155  105.9091   12.9312 O   0  0  0  0  0  0  0  0  0  0  0  0
   84.7948  104.5379   14.9306 C   0  0  0  0  0  0  0  0  0  0  0  0
   85.0819  104.5405   16.3094 C   0  0  0  0  0  0  0  0  0  0  0  0
   84.4413  105.0414   12.5097 H   0  0  0  0  0  0  0  0  0  0  0  0
   85.6313  105.6930   18.5006 C   0  0  0  0  0  0  0  0  0  0  0  0
   86.6465  104.7054   18.7087 O   0  0  0  0  0  0  0  0  0  0  0  0
   87.2995  104.8279   17.9982 H   0  0  0  0  0  0  0  0  0  0  0  0
   84.3706  105.3655   19.3406 C   0  0  0  0  0  0  0  0  0  0  0  0
   84.5223  104.4225   20.4684 N   0  0  0  0  0  0  0  0  0  0  0  0
   85.5207  104.2234   20.5466 H   0  0  0  0  0  0  0  0  0  0  0  0
   83.6130  106.3073   21.6681 C   0  0  0  0  0  0  0  0  0  0  0  0
   84.0255  104.8215   21.8005 C   0  0  0  0  0  0  0  0  0  0  0  0
   82.7910  104.0360   22.2695 C   0  0  0  0  0  0  0  0  0  0  0  0
   85.1412  104.7586   22.8553 C   0  0  0  0  0  0  0  0  0  0  0  0
   84.5384  103.2437   14.1995 C   0  0  0  0  0  0  0  0  0  0  0  0
   83.2673  103.2136   13.5632 O   0  0  0  0  0  0  0  0  0  0  0  0
   83.1905  102.3502   13.1242 H   0  0  0  0  0  0  0  0  0  0  0  0
 15 16  1  0  0  0
 16 17  1  0  0  0
 16 18  1  0  0  0
 16 13  1  0  0  0
 13 12  1  0  0  0
 12  9  1  0  0  0
  9 10  1  0  0  0
  9  1  1  0  0  0
  1  2  2  0  0  0
  2  3  1  0  0  0
  3  4  2  0  0  0
  4  5  1  0  0  0
  4  6  1  0  0  0
  6 19  1  0  0  0
 19 20  1  0  0  0
  6  7  2  0  0  0
  7  1  1  0  0  0
 13 14  1  0  0  0
 10 11  1  0  0  0
  5  8  1  0  0  0
 20 21  1  0  0  0
M  END
> <minimizedAffinity>
-6.40334

$$$$
decoy_pyrimethamine


 21 22  0  0  0  0  0  0  0  0999 V2000
   91.2041  103.0265   23.5931 C   0  0  0  0  0  0  0  0  0  0  0  0
   90.9971  101.7922   23.0779 N   0  0  0  0  0  0  0  0  0  0  0  0
   91.7125  101.4390   22.0108 C   0  0  0  0  0  0  0  0  0  0  0  0
   91.4772  100.1895   21.4757 N   0  0  0  0  0  0  0  0  0  0  0  0
   92.6013  102.2164   21.3973 N   0  0  0  0  0  0  0  0  0  0  0  0
   92.8140  103.4282   21.9300 C   0  0  0  0  0  0  0  0  0  0  0  0
   93.7445  104.2130   21.2386 N   0  0  0  0  0  0  0  0  0  0  0  0
   92.1388  103.9102   23.0525 C   0  0  0  0  0  0  0  0  0  0  0  0
   91.7071  100.1939   20.4922 H   0  0  0  0  0  0  0  0  0  0  0  0
   90.5493   99.8837   21.7333 H   0  0  0  0  0  0  0  0  0  0  0  0
   94.1539  103.6322   20.5114 H   0  0  0  0  0  0  0  0  0  0  0  0
   94.4435  104.6052   21.8598 H   0  0  0  0  0  0  0  0  0  0  0  0
   92.3990  105.2451   23.6112 C   0  0  0  0  0  0  0  0  0  0  0  0
   93.3706  105.4307   24.6094 C   0  0  0  0  0  0  0  0  0  0  0  0
   93.6171  106.7002   25.1402 C   0  0  0  0  0  0  0  0  0  0  0  0
   92.8964  107.7971   24.6744 C   0  0  0  0  0  0  0  0  0  0  0  0
   93.2004  109.3592   25.3270 Cl  0  0  0  0  0  0  0  0  0  0  0  0
   91.9334  107.6363   23.6818 C   0  0  0  0  0  0  0  0  0  0  0  0
   91.6875  106.3663   23.1527 C   0  0  0  0  0  0  0  0  0  0  0  0
   90.8407  102.7816   26.1170 C   0  0  0  0  0  0  0  0  0  0  0  0
   90.3772  103.4063   24.8053 C   0  0  0  0  0  0  0  0  0  0  0  0
 20 21  1  0  0  0
 21  1  1  0  0  0
  1  2  2  0  0  0
  2  3  1  0  0  0
  3  4  1  0  0  0
  3  5  2  0  0  0
  5  6  1  0  0  0
  6  7  1  0  0  0
  6  8  2  0  0  0
  8 13  1  0  0  0
 13 14  2  0  0  0
 14 15  1  0  0  0
 15 16  2  0  0  0
 16 17  1  0  0  0
 16 18  1  0  0  0
 18 19  2  0  0  0
  8  1  1  0  0  0
 19 13  1  0  0  0
  4  9  1  0  0  0
  4 10  1  0  0  0
  7 11  1  0  0  0
  7 12  1  0  0  0
M  END
> <minimizedAffinity>
-6.18759

$$$$
decoy_propranolol


 21 22  0  0  0  0  0  0  0  0999 V2000
   85.0727  104.9682   17.7870 O   0  0  0  0  0  0  0  0  0  0  0  0
   85.0004  105.5931   16.5646 C   0  0  0  0  0  0  0  0  0  0  0  0
   84.9364  106.9814   16.4042 C   0  0  0  0  0  0  0  0  0  0  0  0
   84.8761  107.5399   15.1289 C   0  0  0  0  0  0  0  0  0  0  0  0
   84.8844  106.7181   14.0042 C   0  0  0  0  0  0  0  0  0  0  0  0
   84.9570  105.3243   14.1357 C   0  0  0  0  0  0  0  0  0  0  0  0
   84.9697  104.4998   12.9980 C   0  0  0  0  0  0  0  0  0  0  0  0
   85.0419  103.1124   13.1186 C   0  0  0  0  0  0  0  0  0  0  0  0
   85.1021  102.5306   14.3787 C   0  0  0  0  0  0  0  0  0  0  0  0
   85.0904  103.3372   15.5184 C   0  0  0  0  0  0  0  0  0  0  0  0
   85.0186  104.7451   15.4270 C   0  0  0  0  0  0  0  0  0  0  0  0
   86.2359  105.2104   18.5848 C   0  0  0  0  0  0  0  0  0  0  0  0
   85.7992  105.4176   20.0419 C   0  0  0  0  0  0  0  0  0  0  0  0
   85.6132  104.1405   20.6742 O   0  0  0  0  0  0  0  0  0  0  0  0
   84.9505  103.6681   20.1344 H   0  0  0  0  0  0  0  0  0  0  0  0
   84.4927  106.2363   20.1492 C   0  0  0  0  0  0  0  0  0  0  0  0
   83.3014  105.3789   20.2233 N   0  0  0  0  0  0  0  0  0  0  0  0
   83.5990  104.4012   20.1530 H   0  0  0  0  0  0  0  0  0  0  0  0
   82.9192  106.7664   22.2690 C   0  0  0  0  0  0  0  0  0  0  0  0
   82.4691  105.5850   21.4099 C   0  0  0  0  0  0  0  0  0  0  0  0
   82.5116  104.2981   22.2373 C   0  0  0  0  0  0  0  0  0  0  0  0
 19 20  1  0  0  0
 20 21  1  0  0  0
 20 17  1  0  0  0
 17 16  1  0  0  0
 16 13  1  0  0  0
 13 14  1  0  0  0
 13 12  1  0  0  0
 12  1  1  0  0  0
  1  2  1  0  0  0
  2  3  2  0  0  0
  3  4  1  0  0  0
  4  5  2  0  0  0
  5  6  1  0  0  0
  6  7  2  0  0  0
  7  8  1  0  0  0
  8  9  2  0  0  0
  9 10  1  0  0  0
 10 11  2  0  0  0
 11  2  1  0  0  0
 11  6  1  0  0  0
 17 18  1  0  0  0
 14 15  1  0  0  0
M  END
> <minimizedAffinity>
-6.82965

$$$$
decoy_procainamide


 20 20  0  0  0  0  0  0  0  0999 V2000
   84.7264  107.1965   18.2427 N   0  0  0  0  0  0  0  0  0  0  0  0
   85.4313  107.2991   17.0614 C   0  0  0  0  0  0  0  0  0  0  0  0
   86.1532  108.2486   16.7818 O   0  0  0  0  0  0  0  0  0  0  0  0
   83.9882  106.5098   18.3104 H   0  0  0  0  0  0  0  0  0  0  0  0
   85.2505  106.1873   16.0879 C   0  0  0  0  0  0  0  0  0  0  0  0
   85.2149  106.4060   14.7066 C   0  0  0  0  0  0  0  0  0  0  0  0
   85.0427  105.3266   13.8328 C   0  0  0  0  0  0  0  0  0  0  0  0
   84.8562  104.0306   14.3222 C   0  0  0  0  0  0  0  0  0  0  0  0
   84.8084  102.9457   13.4409 N   0  0  0  0  0  0  0  0  0  0  0  0
   84.9368  103.8151   15.7000 C   0  0  0  0  0  0  0  0  0  0  0  0
   85.1052  104.8871   16.5817 C   0  0  0  0  0  0  0  0  0  0  0  0
   84.3765  102.1151   13.8347 H   0  0  0  0  0  0  0  0  0  0  0  0
   84.4365  103.1729   12.5241 H   0  0  0  0  0  0  0  0  0  0  0  0
   84.7374  108.2661   19.2288 C   0  0  0  0  0  0  0  0  0  0  0  0
   84.7091  107.7422   20.6787 C   0  0  0  0  0  0  0  0  0  0  0  0
   85.2694  106.3911   20.8249 N   0  0  0  0  0  0  0  0  0  0  0  0
   87.6159  105.8546   19.9546 C   0  0  0  0  0  0  0  0  0  0  0  0
   86.7073  106.3084   21.0944 C   0  0  0  0  0  0  0  0  0  0  0  0
   84.4402  105.5089   21.6523 C   0  0  0  0  0  0  0  0  0  0  0  0
   83.4211  104.6408   20.9256 C   0  0  0  0  0  0  0  0  0  0  0  0
 17 18  1  0  0  0
 18 16  1  0  0  0
 16 19  1  0  0  0
 19 20  1  0  0  0
 16 15  1  0  0  0
 15 14  1  0  0  0
 14  1  1  0  0  0
  1  2  1  0  0  0
  2  3  2  0  0  0
  2  5  1  0  0  0
  5  6  2  0  0  0
  6  7  1  0  0  0
  7  8  2  0  0  0
  8  9  1  0  0  0
  8 10  1  0  0  0
 10 11  2  0  0  0
 11  5  1  0  0  0
  1  4  1  0  0  0
  9 12  1  0  0  0
  9 13  1  0  0  0
M  END
> <minimizedAffinity>
-5.53196

$$$$
decoy_phenytoin


 21 23  0  0  0  0  0  0  0  0999 V2000
   91.9054  101.4903   19.5023 O   0  0  0  0  0  0  0  0  0  0  0  0
   92.0463  102.4351   20.2574 C   0  0  0  0  0  0  0  0  0  0  0  0
   93.1988  103.0880   20.5059 N   0  0  0  0  0  0  0  0  0  0  0  0
   92.9719  104.1749   21.2944 C   0  0  0  0  0  0  0  0  0  0  0  0
   93.8435  104.9811   21.5970 O   0  0  0  0  0  0  0  0  0  0  0  0
   91.4633  104.2078   21.7001 C   0  0  0  0  0  0  0  0  0  0  0  0
   91.0393  103.0191   20.9747 N   0  0  0  0  0  0  0  0  0  0  0  0
   94.0783  102.8679   20.0725 H   0  0  0  0  0  0  0  0  0  0  0  0
   90.0770  102.7552   20.8240 H   0  0  0  0  0  0  0  0  0  0  0  0
   90.6722  105.4056   21.1536 C   0  0  0  0  0  0  0  0  0  0  0  0
   89.2637  105.3348   21.0946 C   0  0  0  0  0  0  0  0  0  0  0  0
   88.5052  106.3943   20.5927 C   0  0  0  0  0  0  0  0  0  0  0  0
   89.1368  107.5463   20.1365 C   0  0  0  0  0  0  0  0  0  0  0  0
   90.5248  107.6392   20.1838 C   0  0  0  0  0  0  0  0  0  0  0  0
   91.2868  106.5800   20.6863 C   0  0  0  0  0  0  0  0  0  0  0  0
   91.3372  104.0481   23.2221 C   0  0  0  0  0  0  0  0  0  0  0  0
   90.9141  102.8496   23.8257 C   0  0  0  0  0  0  0  0  0  0  0  0
   90.8111  102.7428   25.2153 C   0  0  0  0  0  0  0  0  0  0  0  0
   91.1306  103.8277   26.0270 C   0  0  0  0  0  0  0  0  0  0  0  0
   91.5565  105.0211   25.4521 C   0  0  0  0  0  0  0  0  0  0  0  0
   91.6604  105.1306   24.0641 C   0  0  0  0  0  0  0  0  0  0  0  0
  1  2  2  0  0  0
  2  3  1  0  0  0
  3  4  1  0  0  0
  4  5  2  0  0  0
  4  6  1  0  0  0
  6 10  1  0  0  0
 10 11  2  0  0  0
 11 12  1  0  0  0
 12 13  2  0  0  0
 13 14  1  0  0  0
 14 15  2  0  0  0
  6 16  1  0  0  0
 16 17  2  0  0  0
 17 18  1  0  0  0
 18 19  2  0  0  0
 19 20  1  0  0  0
 20 21  2  0  0  0
  6  7  1  0  0  0
  7  2  1  0  0  0
 15 10  1  0  0  0
 21 16  1  0  0  0
  3  8  1  0  0  0
  7  9  1  0  0  0
M  END
> <minimizedAffinity>
-6.55746

$$$$
decoy_omeprazole


 25 27  0  0  0  0  0  0  0  0999 V2000
   85.9661  107.1744   19.2088 S   0  0  0  0  0  0  0  0  0  0  0  0
   87.0398  108.1888   18.9327 O   0  0  0  0  0  0  0  0  0  0  0  0
   84.5803  104.2677   13.7964 C   0  0  0  0  0  0  0  0  0  0  0  0
   84.6607  105.5582   13.2571 C   0  0  0  0  0  0  0  0  0  0  0  0
   84.9679  106.6671   14.0585 C   0  0  0  0  0  0  0  0  0  0  0  0
   85.1800  106.4244   15.4148 C   0  0  0  0  0  0  0  0  0  0  0  0
   85.4952  107.2461   16.4641 N   0  0  0  0  0  0  0  0  0  0  0  0
   85.5745  106.4784   17.5933 C   0  0  0  0  0  0  0  0  0  0  0  0
   85.3473  105.2080   17.3375 N   0  0  0  0  0  0  0  0  0  0  0  0
   85.1026  105.1573   15.9846 C   0  0  0  0  0  0  0  0  0  0  0  0
   84.8039  104.0596   15.1662 C   0  0  0  0  0  0  0  0  0  0  0  0
   85.6571  108.2437   16.4373 H   0  0  0  0  0  0  0  0  0  0  0  0
   83.8967  101.9878   13.8511 C   0  0  0  0  0  0  0  0  0  0  0  0
   84.2910  103.1254   13.0965 O   0  0  0  0  0  0  0  0  0  0  0  0
   86.7094  105.6704   19.9173 C   0  0  0  0  0  0  0  0  0  0  0  0
   85.8815  105.1134   21.0510 C   0  0  0  0  0  0  0  0  0  0  0  0
   84.5336  105.1777   20.8770 N   0  0  0  0  0  0  0  0  0  0  0  0
   83.7378  104.7200   21.8670 C   0  0  0  0  0  0  0  0  0  0  0  0
   84.2018  104.1370   23.0325 C   0  0  0  0  0  0  0  0  0  0  0  0
   83.2312  103.6823   24.0765 C   0  0  0  0  0  0  0  0  0  0  0  0
   85.5849  103.9695   23.1378 C   0  0  0  0  0  0  0  0  0  0  0  0
   86.4590  104.4900   22.1678 C   0  0  0  0  0  0  0  0  0  0  0  0
   87.9501  104.3898   22.3295 C   0  0  0  0  0  0  0  0  0  0  0  0
   86.1025  103.3380   24.2441 O   0  0  0  0  0  0  0  0  0  0  0  0
   86.3123  104.2890   25.2928 C   0  0  0  0  0  0  0  0  0  0  0  0
 13 14  1  0  0  0
 14  3  1  0  0  0
  3  4  2  0  0  0
  4  5  1  0  0  0
  5  6  2  0  0  0
  6  7  1  0  0  0
  7  8  1  0  0  0
  8  1  1  0  0  0
  1  2  2  0  0  0
  1 15  1  0  0  0
 15 16  1  0  0  0
 16 17  2  0  0  0
 17 18  1  0  0  0
 18 19  2  0  0  0
 19 20  1  0  0  0
 19 21  1  0  0  0
 21 24  1  0  0  0
 24 25  1  0  0  0
 21 22  2  0  0  0
 22 23  1  0  0  0
  8  9  2  0  0  0
  9 10  1  0  0  0
 10 11  2  0  0  0
 11  3  1  0  0  0
 10  6  1  0  0  0
 22 16  1  0  0  0
  7 12  1  0  0  0
M  END
> <minimizedAffinity>
-7.34797

$$$$
decoy_nicotine


 12 13  0  0  0  0  0  0  0  0999 V2000
   85.7818  108.5774   17.7327 C   0  0  0  0  0  0  0  0  0  0  0  0
   86.2785  107.2288   17.9762 N   0  0  0  0  0  0  0  0  0  0  0  0
   86.7174  107.0459   19.3592 C   0  0  0  0  0  0  0  0  0  0  0  0
   86.8695  105.5401   19.4435 C   0  0  0  0  0  0  0  0  0  0  0  0
   85.7199  105.0022   18.6007 C   0  0  0  0  0  0  0  0  0  0  0  0
   85.2612  106.1883   17.7355 C   0  0  0  0  0  0  0  0  0  0  0  0
   85.1169  105.8075   16.2837 C   0  0  0  0  0  0  0  0  0  0  0  0
   85.1325  106.7807   15.2787 C   0  0  0  0  0  0  0  0  0  0  0  0
   84.9714  106.4068   13.9471 C   0  0  0  0  0  0  0  0  0  0  0  0
   84.7921  105.0645   13.6590 C   0  0  0  0  0  0  0  0  0  0  0  0
   84.7640  104.0944   14.5955 N   0  0  0  0  0  0  0  0  0  0  0  0
   84.9281  104.4870   15.8815 C   0  0  0  0  0  0  0  0  0  0  0  0
  1  2  1  0  0  0
  2  3  1  0  0  0
  3  4  1  0  0  0
  4  5  1  0  0  0
  5  6  1  0  0  0
  6  7  1  0  0  0
  7  8  2  0  0  0
  8  9  1  0  0  0
  9 10  2  0  0  0
 10 11  1  0  0  0
 11 12  2  0  0  0
  6  2  1  0  0  0
 12  7  1  0  0  0
M  END
> <minimizedAffinity>
-5.42793

$$$$
decoy_naproxen


 18 19  0  0  0  0  0  0  0  0999 V2000
   84.6580  104.3280   13.8865 C   0  0  0  0  0  0  0  0  0  0  0  0
   84.7035  105.6473   13.4421 C   0  0  0  0  0  0  0  0  0  0  0  0
   84.9729  106.6828   14.3440 C   0  0  0  0  0  0  0  0  0  0  0  0
   85.2004  106.4167   15.7031 C   0  0  0  0  0  0  0  0  0  0  0  0
   85.4719  107.4479   16.6197 C   0  0  0  0  0  0  0  0  0  0  0  0
   85.6982  107.1767   17.9789 C   0  0  0  0  0  0  0  0  0  0  0  0
   85.6532  105.8457   18.4136 C   0  0  0  0  0  0  0  0  0  0  0  0
   85.3845  104.8118   17.5134 C   0  0  0  0  0  0  0  0  0  0  0  0
   85.1555  105.0820   16.1564 C   0  0  0  0  0  0  0  0  0  0  0  0
   84.8840  104.0537   15.2385 C   0  0  0  0  0  0  0  0  0  0  0  0
   83.9459  102.0616   13.7867 C   0  0  0  0  0  0  0  0  0  0  0  0
   84.4065  103.2268   13.1144 O   0  0  0  0  0  0  0  0  0  0  0  0
   85.9889  108.3140   18.9416 C   0  0  0  0  0  0  0  0  0  0  0  0
   84.7635  108.6787   19.7826 C   0  0  0  0  0  0  0  0  0  0  0  0
   87.1715  108.0023   19.8399 C   0  0  0  0  0  0  0  0  0  0  0  0
   88.3437  107.9138   19.5098 O   0  0  0  0  0  0  0  0  0  0  0  0
   86.8161  107.8330   21.1312 O   0  0  0  0  0  0  0  0  0  0  0  0
   87.6677  107.6870   21.5938 H   0  0  0  0  0  0  0  0  0  0  0  0
 11 12  1  0  0  0
 12  1  1  0  0  0
  1  2  2  0  0  0
  2  3  1  0  0  0
  3  4  2  0  0  0
  4  5  1  0  0  0
  5  6  2  0  0  0
  6 13  1  0  0  0
 13 14  1  0  0  0
 13 15  1  0  0  0
 15 16  2  0  0  0
 15 17  1  0  0  0
  6  7  1  0  0  0
  7  8  2  0  0  0
  8  9  1  0  0  0
  9 10  2  0  0  0
 10  1  1  0  0  0
  9  4  1  0  0  0
 17 18  1  0  0  0
M  END
> <minimizedAffinity>
-6.74004

$$$$
decoy_metronidazole


 13 13  0  0  0  0  0  0  0  0999 V2000
   92.0659  105.2307   25.4001 C   0  0  0  0  0  0  0  0  0  0  0  0
   91.7708  104.1800   24.3904 C   0  0  0  0  0  0  0  0  0  0  0  0
   90.8704  103.2262   24.5378 N   0  0  0  0  0  0  0  0  0  0  0  0
   90.9229  102.4741   23.3940 C   0  0  0  0  0  0  0  0  0  0  0  0
   91.8516  102.9936   22.5315 C   0  0  0  0  0  0  0  0  0  0  0  0
   92.4211  104.0647   23.1705 N   0  0  0  0  0  0  0  0  0  0  0  0
   92.1933  102.5194   21.2383 N   0  0  0  0  0  0  0  0  0  0  0  0
   91.9059  103.2363   20.2731 O   0  0  0  0  0  0  0  0  0  0  0  0
   92.6943  101.3900   21.1815 O   0  0  0  0  0  0  0  0  0  0  0  0
   93.5436  104.8856   22.7430 C   0  0  0  0  0  0  0  0  0  0  0  0
   93.0895  106.1273   21.9801 C   0  0  0  0  0  0  0  0  0  0  0  0
   93.1135  105.8811   20.5801 O   0  0  0  0  0  0  0  0  0  0  0  0
   92.7917  106.6838   20.1319 H   0  0  0  0  0  0  0  0  0  0  0  0
  1  2  1  0  0  0
  2  3  2  0  0  0
  3  4  1  0  0  0
  4  5  2  0  0  0
  5  7  1  0  0  0
  7  8  2  0  0  0
  7  9  1  0  0  0
  5  6  1  0  0  0
  6 10  1  0  0  0
 10 11  1  0  0  0
 11 12  1  0  0  0
  6  2  1  0  0  0
 12 13  1  0  0  0
M  CHG 1   7   1
M  CHG 1   9  -1
M  END
> <minimizedAffinity>
-4.53162

$$$$
decoy_metoprolol


 21 21  0  0  0  0  0  0  0  0999 V2000
   84.5675  106.2576   16.3739 O   0  0  0  0  0  0  0  0  0  0  0  0
   87.0056  106.2133   19.7689 C   0  0  0  0  0  0  0  0  0  0  0  0
   86.6470  104.9942   19.1800 C   0  0  0  0  0  0  0  0  0  0  0  0
   85.8315  104.9618   18.0424 C   0  0  0  0  0  0  0  0  0  0  0  0
   85.3674  106.1492   17.4775 C   0  0  0  0  0  0  0  0  0  0  0  0
   85.7231  107.3659   18.0618 C   0  0  0  0  0  0  0  0  0  0  0  0
   86.5360  107.4006   19.1970 C   0  0  0  0  0  0  0  0  0  0  0  0
   87.8911  106.2490   20.9941 C   0  0  0  0  0  0  0  0  0  0  0  0
   89.3062  106.7446   20.6885 C   0  0  0  0  0  0  0  0  0  0  0  0
   90.1696  104.5856   21.0852 C   0  0  0  0  0  0  0  0  0  0  0  0
   90.2606  105.9650   21.4143 O   0  0  0  0  0  0  0  0  0  0  0  0
   85.1385  106.8711   15.2136 C   0  0  0  0  0  0  0  0  0  0  0  0
   84.1413  106.7520   14.0524 C   0  0  0  0  0  0  0  0  0  0  0  0
   84.0494  108.0124   13.3672 O   0  0  0  0  0  0  0  0  0  0  0  0
   84.9673  108.2646   13.1479 H   0  0  0  0  0  0  0  0  0  0  0  0
   84.5508  105.6573   13.0425 C   0  0  0  0  0  0  0  0  0  0  0  0
   83.7666  104.4191   13.1989 N   0  0  0  0  0  0  0  0  0  0  0  0
   82.8457  104.7040   13.5489 H   0  0  0  0  0  0  0  0  0  0  0  0
   84.3528  103.4527   14.1360 C   0  0  0  0  0  0  0  0  0  0  0  0
   83.3461  102.3194   14.3556 C   0  0  0  0  0  0  0  0  0  0  0  0
   85.6606  102.8744   13.5925 C   0  0  0  0  0  0  0  0  0  0  0  0
 10 11  1  0  0  0
 11  9  1  0  0  0
  9  8  1  0  0  0
  8  2  1  0  0  0
  2  3  2  0  0  0
  3  4  1  0  0  0
  4  5  2  0  0  0
  5  1  1  0  0  0
  1 12  1  0  0  0
 12 13  1  0  0  0
 13 14  1  0  0  0
 13 16  1  0  0  0
 16 17  1  0  0  0
 17 19  1  0  0  0
 19 20  1  0  0  0
 19 21  1  0  0  0
  5  6  1  0  0  0
  6  7  2  0  0  0
  7  2  1  0  0  0
 14 15  1  0  0  0
 17 18  1  0  0  0
M  END
> <minimizedAffinity>
-5.96143

$$$$
decoy_loratadine


 27 30  0  0  0  0  0  0  0  0999 V2000
   84.7996  105.5215   16.0481 C   0  0  0  0  0  0  0  0  0  0  0  0
   84.5661  104.3657   15.7152 O   0  0  0  0  0  0  0  0  0  0  0  0
   85.3076  105.8863   17.2789 N   0  0  0  0  0  0  0  0  0  0  0  0
   85.6465  104.8624   18.2577 C   0  0  0  0  0  0  0  0  0  0  0  0
   86.9090  105.2232   19.0503 C   0  0  0  0  0  0  0  0  0  0  0  0
   86.8218  106.5831   19.7400 C   0  0  0  0  0  0  0  0  0  0  0  0
   87.6695  106.9794   20.7315 C   0  0  0  0  0  0  0  0  0  0  0  0
   88.7867  106.0929   21.1391 C   0  0  0  0  0  0  0  0  0  0  0  0
   88.5673  104.9577   21.9300 C   0  0  0  0  0  0  0  0  0  0  0  0
   89.6387  104.1461   22.3058 C   0  0  0  0  0  0  0  0  0  0  0  0
   90.9308  104.4786   21.9041 C   0  0  0  0  0  0  0  0  0  0  0  0
   92.2520  103.4789   22.3692 Cl  0  0  0  0  0  0  0  0  0  0  0  0
   91.1656  105.6226   21.1408 C   0  0  0  0  0  0  0  0  0  0  0  0
   90.0948  106.4438   20.7611 C   0  0  0  0  0  0  0  0  0  0  0  0
   90.3278  107.7235   19.9959 C   0  0  0  0  0  0  0  0  0  0  0  0
   90.0543  108.9634   20.8579 C   0  0  0  0  0  0  0  0  0  0  0  0
   88.6551  109.2258   21.3794 C   0  0  0  0  0  0  0  0  0  0  0  0
   88.4341  110.4663   22.0045 C   0  0  0  0  0  0  0  0  0  0  0  0
   87.1915  110.7786   22.5428 C   0  0  0  0  0  0  0  0  0  0  0  0
   86.1902  109.8348   22.4495 C   0  0  0  0  0  0  0  0  0  0  0  0
   86.3513  108.6324   21.8624 N   0  0  0  0  0  0  0  0  0  0  0  0
   87.5701  108.3384   21.3312 C   0  0  0  0  0  0  0  0  0  0  0  0
   85.7271  107.4755   19.1606 C   0  0  0  0  0  0  0  0  0  0  0  0
   85.5451  107.2779   17.6509 C   0  0  0  0  0  0  0  0  0  0  0  0
   84.5928  106.5964   15.2379 O   0  0  0  0  0  0  0  0  0  0  0  0
   85.8909  106.1314   13.2885 C   0  0  0  0  0  0  0  0  0  0  0  0
   84.4883  106.2761   13.8463 C   0  0  0  0  0  0  0  0  0  0  0  0
 26 27  1  0  0  0
 27 25  1  0  0  0
 25  1  1  0  0  0
  1  2  2  0  0  0
  1  3  1  0  0  0
  3  4  1  0  0  0
  4  5  1  0  0  0
  5  6  1  0  0  0
  6  7  2  0  0  0
  7  8  1  0  0  0
  8  9  2  0  0  0
  9 10  1  0  0  0
 10 11  2  0  0  0
 11 12  1  0  0  0
 11 13  1  0  0  0
 13 14  2  0  0  0
 14 15  1  0  0  0
 15 16  1  0  0  0
 16 17  1  0  0  0
 17 18  2  0  0  0
 18 19  1  0  0  0
 19 20  2  0  0  0
 20 21  1  0  0  0
 21 22  2  0  0  0
  6 23  1  0  0  0
 23 24  1  0  0  0
 24  3  1  0  0  0
 22  7  1  0  0  0
 14  8  1  0  0  0
 22 17  1  0  0  0
M  END
> <minimizedAffinity>
-7.41990

$$$$
decoy_lidocaine


 18 18  0  0  0  0  0  0  0  0999 V2000
   85.5102  107.8545   17.2271 C   0  0  0  0  0  0  0  0  0  0  0  0
   86.5257  108.2763   16.6848 O   0  0  0  0  0  0  0  0  0  0  0  0
   84.6481  106.8766   16.7567 N   0  0  0  0  0  0  0  0  0  0  0  0
   84.1183  106.4687   17.5229 H   0  0  0  0  0  0  0  0  0  0  0  0
   84.7661  106.1266   15.5651 C   0  0  0  0  0  0  0  0  0  0  0  0
   85.0576  104.7446   15.6960 C   0  0  0  0  0  0  0  0  0  0  0  0
   85.2527  104.0856   17.0373 C   0  0  0  0  0  0  0  0  0  0  0  0
   85.2173  103.9520   14.5472 C   0  0  0  0  0  0  0  0  0  0  0  0
   85.0796  104.5041   13.2805 C   0  0  0  0  0  0  0  0  0  0  0  0
   84.7486  105.8477   13.1490 C   0  0  0  0  0  0  0  0  0  0  0  0
   84.5552  106.6671   14.2784 C   0  0  0  0  0  0  0  0  0  0  0  0
   84.0817  108.0701   14.0099 C   0  0  0  0  0  0  0  0  0  0  0  0
   85.0442  108.4111   18.5814 C   0  0  0  0  0  0  0  0  0  0  0  0
   85.1500  107.3747   19.6486 N   0  0  0  0  0  0  0  0  0  0  0  0
   87.0582  105.7534   19.8084 C   0  0  0  0  0  0  0  0  0  0  0  0
   86.5643  107.1797   20.0274 C   0  0  0  0  0  0  0  0  0  0  0  0
   84.2695  107.7059   20.7833 C   0  0  0  0  0  0  0  0  0  0  0  0
   83.3984  106.5766   21.3265 C   0  0  0  0  0  0  0  0  0  0  0  0
 15 16  1  0  0  0
 16 14  1  0  0  0
 14 17  1  0  0  0
 17 18  1  0  0  0
 14 13  1  0  0  0
 13  1  1  0  0  0
  1  2  2  0  0  0
  1  3  1  0  0  0
  3  5  1  0  0  0
  5  6  2  0  0  0
  6  7  1  0  0  0
  6  8  1  0  0  0
  8  9  2  0  0  0
  9 10  1  0  0  0
 10 11  2  0  0  0
 11 12  1  0  0  0
 11  5  1  0  0  0
  3  4  1  0  0  0
M  END
> <minimizedAffinity>
-5.51899

$$$$
decoy_ketoprofen


 20 21  0  0  0  0  0  0  0  0999 V2000
   92.3308  103.7940   21.2422 C   0  0  0  0  0  0  0  0  0  0  0  0
   93.3489  104.5732   21.8138 C   0  0  0  0  0  0  0  0  0  0  0  0
   93.1990  105.9543   21.9578 C   0  0  0  0  0  0  0  0  0  0  0  0
   92.0232  106.5795   21.5445 C   0  0  0  0  0  0  0  0  0  0  0  0
   90.9878  105.8173   20.9955 C   0  0  0  0  0  0  0  0  0  0  0  0
   91.1502  104.4347   20.8306 C   0  0  0  0  0  0  0  0  0  0  0  0
   91.9760  101.8340   19.6927 C   0  0  0  0  0  0  0  0  0  0  0  0
   92.4745  102.2891   21.0646 C   0  0  0  0  0  0  0  0  0  0  0  0
   91.7797  101.4820   22.1491 C   0  0  0  0  0  0  0  0  0  0  0  0
   91.4651  101.8407   23.2717 O   0  0  0  0  0  0  0  0  0  0  0  0
   91.4682  100.2335   21.7353 O   0  0  0  0  0  0  0  0  0  0  0  0
   91.0350   99.8300   22.5170 H   0  0  0  0  0  0  0  0  0  0  0  0
   89.7215  106.4394   20.5302 C   0  0  0  0  0  0  0  0  0  0  0  0
   89.7672  107.4902   19.8951 O   0  0  0  0  0  0  0  0  0  0  0  0
   88.4014  105.8210   20.8111 C   0  0  0  0  0  0  0  0  0  0  0  0
   87.4429  105.8035   19.7913 C   0  0  0  0  0  0  0  0  0  0  0  0
   86.1949  105.2205   20.0149 C   0  0  0  0  0  0  0  0  0  0  0  0
   85.9070  104.6429   21.2514 C   0  0  0  0  0  0  0  0  0  0  0  0
   86.8676  104.6386   22.2632 C   0  0  0  0  0  0  0  0  0  0  0  0
   88.1178  105.2211   22.0441 C   0  0  0  0  0  0  0  0  0  0  0  0
  7  8  1  0  0  0
  8  9  1  0  0  0
  9 10  2  0  0  0
  9 11  1  0  0  0
  8  1  1  0  0  0
  1  2  2  0  0  0
  2  3  1  0  0  0
  3  4  2  0  0  0
  4  5  1  0  0  0
  5 13  1  0  0  0
 13 14  2  0  0  0
 13 15  1  0  0  0
 15 16  2  0  0  0
 16 17  1  0  0  0
 17 18  2  0  0  0
 18 19  1  0  0  0
 19 20  2  0  0  0
  5  6  2  0  0  0
  6  1  1  0  0  0
 20 15  1  0  0  0
 11 12  1  0  0  0
M  END
> <minimizedAffinity>
-6.96294

$$$$
decoy_indomethacin


 26 28  0  0  0  0  0  0  0  0999 V2000
   85.0894  105.5442   18.5542 C   0  0  0  0  0  0  0  0  0  0  0  0
   86.4781  105.5784   18.5944 C   0  0  0  0  0  0  0  0  0  0  0  0
   87.1722  105.6973   19.8032 C   0  0  0  0  0  0  0  0  0  0  0  0
   86.4399  105.7589   21.0053 C   0  0  0  0  0  0  0  0  0  0  0  0
   85.0433  105.7770   20.9820 C   0  0  0  0  0  0  0  0  0  0  0  0
   84.3667  105.6515   19.7437 C   0  0  0  0  0  0  0  0  0  0  0  0
   84.5865  105.9713   22.3180 C   0  0  0  0  0  0  0  0  0  0  0  0
   85.7111  106.0829   23.1227 C   0  0  0  0  0  0  0  0  0  0  0  0
   85.7823  106.3518   24.5925 C   0  0  0  0  0  0  0  0  0  0  0  0
   86.8490  105.8482   22.3427 N   0  0  0  0  0  0  0  0  0  0  0  0
   88.1802  105.7281   22.8278 C   0  0  0  0  0  0  0  0  0  0  0  0
   88.4531  106.2348   23.9154 O   0  0  0  0  0  0  0  0  0  0  0  0
   89.2746  104.9997   22.1460 C   0  0  0  0  0  0  0  0  0  0  0  0
   89.3670  103.6043   22.2306 C   0  0  0  0  0  0  0  0  0  0  0  0
   90.4253  102.9408   21.6044 C   0  0  0  0  0  0  0  0  0  0  0  0
   91.3934  103.6719   20.9147 C   0  0  0  0  0  0  0  0  0  0  0  0
   92.6940  102.8507   20.1451 Cl  0  0  0  0  0  0  0  0  0  0  0  0
   91.3189  105.0633   20.8509 C   0  0  0  0  0  0  0  0  0  0  0  0
   90.2623  105.7308   21.4747 C   0  0  0  0  0  0  0  0  0  0  0  0
   85.0139  106.3413   16.3149 C   0  0  0  0  0  0  0  0  0  0  0  0
   84.5568  105.4227   17.2998 O   0  0  0  0  0  0  0  0  0  0  0  0
   83.1531  106.0706   22.7406 C   0  0  0  0  0  0  0  0  0  0  0  0
   82.4525  104.7390   22.6611 C   0  0  0  0  0  0  0  0  0  0  0  0
   82.7252  103.7320   23.2950 O   0  0  0  0  0  0  0  0  0  0  0  0
   81.4210  104.7340   21.7896 O   0  0  0  0  0  0  0  0  0  0  0  0
   81.0474  103.8322   21.8841 H   0  0  0  0  0  0  0  0  0  0  0  0
 20 21  1  0  0  0
 21  1  1  0  0  0
  1  2  2  0  0  0
  2  3  1  0  0  0
  3  4  2  0  0  0
  4  5  1  0  0  0
  5  6  2  0  0  0
  5  7  1  0  0  0
  7 22  1  0  0  0
 22 23  1  0  0  0
 23 24  2  0  0  0
 23 25  1  0  0  0
  7  8  2  0  0  0
  8  9  1  0  0  0
  8 10  1  0  0  0
 10 11  1  0  0  0
 11 12  2  0  0  0
 11 13  1  0  0  0
 13 14  2  0  0  0
 14 15  1  0  0  0
 15 16  2  0  0  0
 16 17  1  0  0  0
 16 18  1  0  0  0
 18 19  2  0  0  0
  6  1  1  0  0  0
 19 13  1  0  0  0
 10  4  1  0  0  0
 25 26  1  0  0  0
M  END
> <minimizedAffinity>
-6.94109

$$$$
decoy_ibuprofen


 16 16  0  0  0  0  0  0  0  0999 V2000
   85.2760  106.6418   16.7572 C   0  0  0  0  0  0  0  0  0  0  0  0
   85.1739  106.9849   15.4043 C   0  0  0  0  0  0  0  0  0  0  0  0
   84.9796  106.0003   14.4316 C   0  0  0  0  0  0  0  0  0  0  0  0
   84.8808  104.6473   14.7884 C   0  0  0  0  0  0  0  0  0  0  0  0
   84.9781  104.3084   16.1454 C   0  0  0  0  0  0  0  0  0  0  0  0
   85.1707  105.2938   17.1174 C   0  0  0  0  0  0  0  0  0  0  0  0
   84.6831  103.5929   13.7105 C   0  0  0  0  0  0  0  0  0  0  0  0
   85.9623  102.7960   13.4522 C   0  0  0  0  0  0  0  0  0  0  0  0
   83.5443  102.6320   14.0069 C   0  0  0  0  0  0  0  0  0  0  0  0
   82.3550  102.7750   13.7758 O   0  0  0  0  0  0  0  0  0  0  0  0
   83.9689  101.5199   14.6483 O   0  0  0  0  0  0  0  0  0  0  0  0
   83.1456  101.0047   14.7839 H   0  0  0  0  0  0  0  0  0  0  0  0
   85.4848  107.7054   17.8083 C   0  0  0  0  0  0  0  0  0  0  0  0
   84.6417  107.6399   20.2251 C   0  0  0  0  0  0  0  0  0  0  0  0
   85.7340  107.2057   19.2468 C   0  0  0  0  0  0  0  0  0  0  0  0
   87.1139  107.5925   19.7803 C   0  0  0  0  0  0  0  0  0  0  0  0
 14 15  1  0  0  0
 15 16  1  0  0  0
 15 13  1  0  0  0
 13  1  1  0  0  0
  1  2  2  0  0  0
  2  3  1  0  0  0
  3  4  2  0  0  0
  4  7  1  0  0  0
  7  8  1  0  0  0
  7  9  1  0  0  0
  9 10  2  0  0  0
  9 11  1  0  0  0
  4  5  1  0  0  0
  5  6  2  0  0  0
  6  1  1  0  0  0
 11 12  1  0  0  0
M  END
> <minimizedAffinity>
-6.35006

$$$$
decoy_hydrochlorothiazide


 21 22  0  0  0  0  0  0  0  0999 V2000
   85.4882  105.9842   17.4615 C   0  0  0  0  0  0  0  0  0  0  0  0
   85.1957  104.8171   16.7459 C   0  0  0  0  0  0  0  0  0  0  0  0
   84.9162  104.9043   15.3782 C   0  0  0  0  0  0  0  0  0  0  0  0
   84.8900  106.1207   14.6970 C   0  0  0  0  0  0  0  0  0  0  0  0
   85.1967  107.2731   15.4340 C   0  0  0  0  0  0  0  0  0  0  0  0
   85.4923  107.2173   16.8070 C   0  0  0  0  0  0  0  0  0  0  0  0
   85.8278  108.7233   17.5836 Cl  0  0  0  0  0  0  0  0  0  0  0  0
   84.6586  106.2421   13.3298 N   0  0  0  0  0  0  0  0  0  0  0  0
   84.4496  105.0802   12.5003 C   0  0  0  0  0  0  0  0  0  0  0  0
   83.6370  104.1028   13.1853 N   0  0  0  0  0  0  0  0  0  0  0  0
   84.4555  103.4563   14.5027 S   0  0  0  0  0  0  0  0  0  0  0  0
   83.4775  102.7323   15.2824 O   0  0  0  0  0  0  0  0  0  0  0  0
   85.6543  102.8216   14.0041 O   0  0  0  0  0  0  0  0  0  0  0  0
   84.0660  107.0314   13.0863 H   0  0  0  0  0  0  0  0  0  0  0  0
   83.3292  103.3424   12.5822 H   0  0  0  0  0  0  0  0  0  0  0  0
   85.6225  104.2106   19.4896 N   0  0  0  0  0  0  0  0  0  0  0  0
   85.8635  105.8417   19.1796 S   0  0  0  0  0  0  0  0  0  0  0  0
   87.2831  106.0438   19.3632 O   0  0  0  0  0  0  0  0  0  0  0  0
   84.8883  106.5763   19.9471 O   0  0  0  0  0  0  0  0  0  0  0  0
   84.8465  104.0924   20.1430 H   0  0  0  0  0  0  0  0  0  0  0  0
   86.4954  103.7850   19.8047 H   0  0  0  0  0  0  0  0  0  0  0  0
 16 17  1  0  0  0
 17 18  2  0  0  0
 17 19  2  0  0  0
 17  1  1  0  0  0
  1  2  2  0  0  0
  2  3  1  0  0  0
  3  4  2  0  0  0
  4  5  1  0  0  0
  5  6  2  0  0  0
  6  7  1  0  0  0
  4  8  1  0  0  0
  8  9  1  0  0  0
  9 10  1  0  0  0
 10 11  1  0  0  0
 11 12  2  0  0  0
 11 13  2  0  0  0
  6  1  1  0  0  0
 11  3  1  0  0  0
 16 20  1  0  0  0
 16 21  1  0  0  0
  8 14  1  0  0  0
 10 15  1  0  0  0
M  END
> <minimizedAffinity>
-6.89482

$$$$
decoy_haloperidol


 27 29  0  0  0  0  0  0  0  0999 V2000
   86.3666  105.6943   21.7004 N   0  0  0  0  0  0  0  0  0  0  0  0
   87.3360  105.6822   20.6095 C   0  0  0  0  0  0  0  0  0  0  0  0
   86.7704  106.3901   19.3711 C   0  0  0  0  0  0  0  0  0  0  0  0
   85.3441  105.9279   18.9925 C   0  0  0  0  0  0  0  0  0  0  0  0
   84.4248  106.9910   19.3102 O   0  0  0  0  0  0  0  0  0  0  0  0
   84.9325  104.7237   19.8509 C   0  0  0  0  0  0  0  0  0  0  0  0
   85.1213  104.9931   21.3493 C   0  0  0  0  0  0  0  0  0  0  0  0
   83.6229  106.8514   18.7783 H   0  0  0  0  0  0  0  0  0  0  0  0
   85.2313  105.7157   17.4772 C   0  0  0  0  0  0  0  0  0  0  0  0
   85.2436  106.8426   16.6278 C   0  0  0  0  0  0  0  0  0  0  0  0
   85.1421  106.7098   15.2408 C   0  0  0  0  0  0  0  0  0  0  0  0
   85.0254  105.4442   14.6783 C   0  0  0  0  0  0  0  0  0  0  0  0
   84.9000  105.2721   12.9716 Cl  0  0  0  0  0  0  0  0  0  0  0  0
   85.0081  104.3152   15.4919 C   0  0  0  0  0  0  0  0  0  0  0  0
   85.1095  104.4499   16.8817 C   0  0  0  0  0  0  0  0  0  0  0  0
   86.9003  105.2093   22.9810 C   0  0  0  0  0  0  0  0  0  0  0  0
   88.0908  104.2558   22.7951 C   0  0  0  0  0  0  0  0  0  0  0  0
   89.2133  104.5304   23.7937 C   0  0  0  0  0  0  0  0  0  0  0  0
   90.6586  102.8801   24.7379 O   0  0  0  0  0  0  0  0  0  0  0  0
   90.3059  103.4822   23.7239 C   0  0  0  0  0  0  0  0  0  0  0  0
   90.9564  103.1585   22.4161 C   0  0  0  0  0  0  0  0  0  0  0  0
   91.6586  104.1086   21.6613 C   0  0  0  0  0  0  0  0  0  0  0  0
   92.2420  103.7448   20.4432 C   0  0  0  0  0  0  0  0  0  0  0  0
   92.1216  102.4391   19.9819 C   0  0  0  0  0  0  0  0  0  0  0  0
   92.6820  102.0977   18.8148 F   0  0  0  0  0  0  0  0  0  0  0  0
   91.4262  101.4855   20.7135 C   0  0  0  0  0  0  0  0  0  0  0  0
   90.8420  101.8450   21.9301 C   0  0  0  0  0  0  0  0  0  0  0  0
 19 20  2  0  0  0
 20 18  1  0  0  0
 18 17  1  0  0  0
 17 16  1  0  0  0
 16  1  1  0  0  0
  1  2  1  0  0  0
  2  3  1  0  0  0
  3  4  1  0  0  0
  4  5  1  0  0  0
  4  9  1  0  0  0
  9 10  2  0  0  0
 10 11  1  0  0  0
 11 12  2  0  0  0
 12 13  1  0  0  0
 12 14  1  0  0  0
 14 15  2  0  0  0
  4  6  1  0  0  0
  6  7  1  0  0  0
 20 21  1  0  0  0
 21 22  2  0  0  0
 22 23  1  0  0  0
 23 24  2  0  0  0
 24 25  1  0  0  0
 24 26  1  0  0  0
 26 27  2  0  0  0
  7  1  1  0  0  0
 27 21  1  0  0  0
 15  9  1  0  0  0
  5  8  1  0  0  0
M  END
> <minimizedAffinity>
-8.08494

$$$$
decoy_furosemide


 25 26  0  0  0  0  0  0  0  0999 V2000
   86.8503  105.0013   21.5292 C   0  0  0  0  0  0  0  0  0  0  0  0
   85.4804  104.7082   21.5308 C   0  0  0  0  0  0  0  0  0  0  0  0
   84.6484  105.1361   20.4788 C   0  0  0  0  0  0  0  0  0  0  0  0
   85.1871  105.8829   19.4046 C   0  0  0  0  0  0  0  0  0  0  0  0
   86.5741  106.1230   19.4115 C   0  0  0  0  0  0  0  0  0  0  0  0
   87.4016  105.7051   20.4643 C   0  0  0  0  0  0  0  0  0  0  0  0
   89.0691  106.1368   20.3549 Cl  0  0  0  0  0  0  0  0  0  0  0  0
   86.8208  103.3502   23.6883 N   0  0  0  0  0  0  0  0  0  0  0  0
   87.8344  104.4164   22.8778 S   0  0  0  0  0  0  0  0  0  0  0  0
   88.8769  103.5722   22.3377 O   0  0  0  0  0  0  0  0  0  0  0  0
   88.1275  105.5330   23.7415 O   0  0  0  0  0  0  0  0  0  0  0  0
   85.8298  103.4567   23.4820 H   0  0  0  0  0  0  0  0  0  0  0  0
   87.1652  102.3953   23.5821 H   0  0  0  0  0  0  0  0  0  0  0  0
   83.2108  104.7597   20.6071 C   0  0  0  0  0  0  0  0  0  0  0  0
   82.7860  103.8174   21.2516 O   0  0  0  0  0  0  0  0  0  0  0  0
   82.3605  105.5892   19.9737 O   0  0  0  0  0  0  0  0  0  0  0  0
   81.4779  105.2122   20.1812 H   0  0  0  0  0  0  0  0  0  0  0  0
   84.4051  106.2560   18.2947 N   0  0  0  0  0  0  0  0  0  0  0  0
   83.6185  106.8365   18.6170 H   0  0  0  0  0  0  0  0  0  0  0  0
   85.0411  106.9175   17.1496 C   0  0  0  0  0  0  0  0  0  0  0  0
   85.0535  106.1305   15.8830 C   0  0  0  0  0  0  0  0  0  0  0  0
   85.1945  106.4724   14.5536 C   0  0  0  0  0  0  0  0  0  0  0  0
   85.1099  105.2642   13.8202 C   0  0  0  0  0  0  0  0  0  0  0  0
   84.9228  104.2652   14.7462 C   0  0  0  0  0  0  0  0  0  0  0  0
   84.8878  104.7804   16.0016 O   0  0  0  0  0  0  0  0  0  0  0  0
  8  9  1  0  0  0
  9 10  2  0  0  0
  9 11  2  0  0  0
  9  1  1  0  0  0
  1  2  2  0  0  0
  2  3  1  0  0  0
  3 14  1  0  0  0
 14 15  2  0  0  0
 14 16  1  0  0  0
  3  4  2  0  0  0
  4 18  1  0  0  0
 18 20  1  0  0  0
 20 21  1  0  0  0
 21 22  2  0  0  0
 22 23  1  0  0  0
 23 24  2  0  0  0
 24 25  1  0  0  0
  4  5  1  0  0  0
  5  6  2  0  0  0
  6  7  1  0  0  0
  6  1  1  0  0  0
 25 21  1  0  0  0
  8 12  1  0  0  0
  8 13  1  0  0  0
 16 17  1  0  0  0
 18 19  1  0  0  0
M  END
> <minimizedAffinity>
-6.70772

$$$$
decoy_fluoxetine


 23 24  0  0  0  0  0  0  0  0999 V2000
   85.1645  105.4599   19.9859 C   0  0  0  0  0  0  0  0  0  0  0  0
   86.4210  105.1199   20.7716 C   0  0  0  0  0  0  0  0  0  0  0  0
   87.6788  105.5993   20.3742 C   0  0  0  0  0  0  0  0  0  0  0  0
   88.8231  105.2913   21.1114 C   0  0  0  0  0  0  0  0  0  0  0  0
   88.7246  104.5043   22.2565 C   0  0  0  0  0  0  0  0  0  0  0  0
   87.4826  104.0240   22.6660 C   0  0  0  0  0  0  0  0  0  0  0  0
   86.3369  104.3297   21.9294 C   0  0  0  0  0  0  0  0  0  0  0  0
   84.0565  106.0192   20.9019 C   0  0  0  0  0  0  0  0  0  0  0  0
   82.6764  105.4278   20.6028 C   0  0  0  0  0  0  0  0  0  0  0  0
   82.6177  104.0436   22.6009 C   0  0  0  0  0  0  0  0  0  0  0  0
   81.9317  105.0552   21.8089 N   0  0  0  0  0  0  0  0  0  0  0  0
   81.7623  105.8798   22.3841 H   0  0  0  0  0  0  0  0  0  0  0  0
   85.4317  106.4923   19.0179 O   0  0  0  0  0  0  0  0  0  0  0  0
   85.3154  106.2019   17.6881 C   0  0  0  0  0  0  0  0  0  0  0  0
   85.2508  107.1230   16.6447 C   0  0  0  0  0  0  0  0  0  0  0  0
   85.1182  106.6821   15.3224 C   0  0  0  0  0  0  0  0  0  0  0  0
   85.0356  105.3136   15.0256 C   0  0  0  0  0  0  0  0  0  0  0  0
   85.0988  104.3934   16.0801 C   0  0  0  0  0  0  0  0  0  0  0  0
   85.2299  104.8380   17.3981 C   0  0  0  0  0  0  0  0  0  0  0  0
   84.9146  104.8418   13.5977 C   0  0  0  0  0  0  0  0  0  0  0  0
   85.8040  103.8538   13.3028 F   0  0  0  0  0  0  0  0  0  0  0  0
   85.1388  105.8300   12.6867 F   0  0  0  0  0  0  0  0  0  0  0  0
   83.6840  104.3375   13.3017 F   0  0  0  0  0  0  0  0  0  0  0  0
 10 11  1  0  0  0
 11  9  1  0  0  0
  9  8  1  0  0  0
  8  1  1  0  0  0
  1 13  1  0  0  0
 13 14  1  0  0  0
 14 15  2  0  0  0
 15 16  1  0  0  0
 16 17  2  0  0  0
 17 20  1  0  0  0
 20 21  1  0  0  0
 20 22  1  0  0  0
 20 23  1  0  0  0
 17 18  1  0  0  0
 18 19  2  0  0  0
  1  2  1  0  0  0
  2  3  2  0  0  0
  3  4  1  0  0  0
  4  5  2  0  0  0
  5  6  1  0  0  0
  6  7  2  0  0  0
 19 14  1  0  0  0
  7  2  1  0  0  0
 11 12  1  0  0  0
M  END
> <minimizedAffinity>
-6.74767

$$$$
decoy_fluconazole


 23 25  0  0  0  0  0  0  0  0999 V2000
   84.2180  106.9372   18.9128 O   0  0  0  0  0  0  0  0  0  0  0  0
   85.2722  105.9921   18.6091 C   0  0  0  0  0  0  0  0  0  0  0  0
   84.4856  107.7975   18.5145 H   0  0  0  0  0  0  0  0  0  0  0  0
   85.2053  105.6600   17.1135 C   0  0  0  0  0  0  0  0  0  0  0  0
   85.0533  104.3453   16.6343 C   0  0  0  0  0  0  0  0  0  0  0  0
   84.9866  104.0846   15.2612 C   0  0  0  0  0  0  0  0  0  0  0  0
   85.0544  105.1325   14.3528 C   0  0  0  0  0  0  0  0  0  0  0  0
   84.9856  104.8751   13.0409 F   0  0  0  0  0  0  0  0  0  0  0  0
   85.1723  106.4401   14.7888 C   0  0  0  0  0  0  0  0  0  0  0  0
   85.2380  106.6922   16.1554 C   0  0  0  0  0  0  0  0  0  0  0  0
   85.2926  107.9727   16.5478 F   0  0  0  0  0  0  0  0  0  0  0  0
   86.6017  106.6178   19.1258 C   0  0  0  0  0  0  0  0  0  0  0  0
   86.4765  107.9611   19.6645 N   0  0  0  0  0  0  0  0  0  0  0  0
   86.9457  109.1171   19.1227 C   0  0  0  0  0  0  0  0  0  0  0  0
   86.6299  110.1248   19.9020 N   0  0  0  0  0  0  0  0  0  0  0  0
   85.9725  109.5229   20.9361 C   0  0  0  0  0  0  0  0  0  0  0  0
   85.8558  108.1945   20.8392 N   0  0  0  0  0  0  0  0  0  0  0  0
   84.9247  104.7353   19.4470 C   0  0  0  0  0  0  0  0  0  0  0  0
   84.0953  104.9845   20.6007 N   0  0  0  0  0  0  0  0  0  0  0  0
   84.4816  105.0901   21.8998 C   0  0  0  0  0  0  0  0  0  0  0  0
   83.4277  105.3096   22.6509 N   0  0  0  0  0  0  0  0  0  0  0  0
   82.4016  105.3134   21.7514 C   0  0  0  0  0  0  0  0  0  0  0  0
   82.7624  105.1307   20.4773 N   0  0  0  0  0  0  0  0  0  0  0  0
  1  2  1  0  0  0
  2 12  1  0  0  0
 12 13  1  0  0  0
 13 14  1  0  0  0
 14 15  2  0  0  0
 15 16  1  0  0  0
 16 17  2  0  0  0
  2 18  1  0  0  0
 18 19  1  0  0  0
 19 20  1  0  0  0
 20 21  2  0  0  0
 21 22  1  0  0  0
 22 23  2  0  0  0
  2  4  1  0  0  0
  4  5  2  0  0  0
  5  6  1  0  0  0
  6  7  2  0  0  0
  7  8  1  0  0  0
  7  9  1  0  0  0
  9 10  2  0  0  0
 10 11  1  0  0  0
 17 13  1  0  0  0
 23 19  1  0  0  0
 10  4  1  0  0  0
  1  3  1  0  0  0
M  END
> <minimizedAffinity>
-6.14932

$$$$
decoy_diphenhydramine


 19 20  0  0  0  0  0  0  0  0999 V2000
   85.1796  106.7286   17.1169 C   0  0  0  0  0  0  0  0  0  0  0  0
   85.1296  105.7792   15.9283 C   0  0  0  0  0  0  0  0  0  0  0  0
   84.9897  104.3943   16.1324 C   0  0  0  0  0  0  0  0  0  0  0  0
   84.9603  103.5121   15.0487 C   0  0  0  0  0  0  0  0  0  0  0  0
   85.0736  104.0001   13.7485 C   0  0  0  0  0  0  0  0  0  0  0  0
   85.2170  105.3700   13.5293 C   0  0  0  0  0  0  0  0  0  0  0  0
   85.2462  106.2534   14.6114 C   0  0  0  0  0  0  0  0  0  0  0  0
   85.3598  105.9954   18.4400 C   0  0  0  0  0  0  0  0  0  0  0  0
   86.6476  105.8254   18.9785 C   0  0  0  0  0  0  0  0  0  0  0  0
   86.8310  105.1668   20.1961 C   0  0  0  0  0  0  0  0  0  0  0  0
   85.7308  104.6753   20.8955 C   0  0  0  0  0  0  0  0  0  0  0  0
   84.4464  104.8426   20.3795 C   0  0  0  0  0  0  0  0  0  0  0  0
   84.2616  105.4995   19.1616 C   0  0  0  0  0  0  0  0  0  0  0  0
   86.2460  107.6694   16.9052 O   0  0  0  0  0  0  0  0  0  0  0  0
   85.9673  108.9773   17.4127 C   0  0  0  0  0  0  0  0  0  0  0  0
   87.1711  109.5331   18.1995 C   0  0  0  0  0  0  0  0  0  0  0  0
   89.4067  110.5135   18.1866 C   0  0  0  0  0  0  0  0  0  0  0  0
   88.1491  110.3514   17.4610 N   0  0  0  0  0  0  0  0  0  0  0  0
   87.6080  111.6466   17.0556 C   0  0  0  0  0  0  0  0  0  0  0  0
 17 18  1  0  0  0
 18 19  1  0  0  0
 18 16  1  0  0  0
 16 15  1  0  0  0
 15 14  1  0  0  0
 14  1  1  0  0  0
  1  2  1  0  0  0
  2  3  2  0  0  0
  3  4  1  0  0  0
  4  5  2  0  0  0
  5  6  1  0  0  0
  6  7  2  0  0  0
  1  8  1  0  0  0
  8  9  2  0  0  0
  9 10  1  0  0  0
 10 11  2  0  0  0
 11 12  1  0  0  0
 12 13  2  0  0  0
  7  2  1  0  0  0
 13  8  1  0  0  0
M  END
> <minimizedAffinity>
-5.91386

$$$$
decoy_diazepam


 20 22  0  0  0  0  0  0  0  0999 V2000
   85.3616  104.7848   19.7111 C   0  0  0  0  0  0  0  0  0  0  0  0
   86.5323  105.3874   20.3348 N   0  0  0  0  0  0  0  0  0  0  0  0
   87.0317  106.5504   19.7345 C   0  0  0  0  0  0  0  0  0  0  0  0
   86.5655  107.0021   18.6842 O   0  0  0  0  0  0  0  0  0  0  0  0
   88.1289  107.3011   20.4764 C   0  0  0  0  0  0  0  0  0  0  0  0
   89.3649  106.5279   20.4205 N   0  0  0  0  0  0  0  0  0  0  0  0
   89.4281  105.4379   21.1081 C   0  0  0  0  0  0  0  0  0  0  0  0
   88.3392  104.9535   22.0063 C   0  0  0  0  0  0  0  0  0  0  0  0
   88.7194  104.5085   23.2867 C   0  0  0  0  0  0  0  0  0  0  0  0
   87.7788  103.9376   24.1354 C   0  0  0  0  0  0  0  0  0  0  0  0
   88.2525  103.3814   25.6912 Cl  0  0  0  0  0  0  0  0  0  0  0  0
   86.4595  103.8045   23.7247 C   0  0  0  0  0  0  0  0  0  0  0  0
   86.0733  104.2694   22.4632 C   0  0  0  0  0  0  0  0  0  0  0  0
   86.9948  104.8785   21.5891 C   0  0  0  0  0  0  0  0  0  0  0  0
   90.6814  104.6249   20.9906 C   0  0  0  0  0  0  0  0  0  0  0  0
   91.9206  105.2676   21.0988 C   0  0  0  0  0  0  0  0  0  0  0  0
   93.1026  104.5329   20.9929 C   0  0  0  0  0  0  0  0  0  0  0  0
   93.0511  103.1577   20.7683 C   0  0  0  0  0  0  0  0  0  0  0  0
   91.8195  102.5156   20.6402 C   0  0  0  0  0  0  0  0  0  0  0  0
   90.6341  103.2465   20.7451 C   0  0  0  0  0  0  0  0  0  0  0  0
  1  2  1  0  0  0
  2  3  1  0  0  0
  3  4  2  0  0  0
  3  5  1  0  0  0
  5  6  1  0  0  0
  6  7  2  0  0  0
  7 15  1  0  0  0
 15 16  2  0  0  0
 16 17  1  0  0  0
 17 18  2  0  0  0
 18 19  1  0  0  0
 19 20  2  0  0  0
  7  8  1  0  0  0
  8  9  2  0  0  0
  9 10  1  0  0  0
 10 11  1  0  0  0
 10 12  2  0  0  0
 12 13  1  0  0  0
 13 14  2  0  0  0
 14  2  1  0  0  0
 20 15  1  0  0  0
 14  8  1  0  0  0
M  END
> <minimizedAffinity>
-6.60251

$$$$
decoy_ciprofloxacin


 26 29  0  0  0  0  0  0  0  0999 V2000
   84.5846  104.7044   22.6020 C   0  0  0  0  0  0  0  0  0  0  0  0
   85.1166  105.1576   21.4565 C   0  0  0  0  0  0  0  0  0  0  0  0
   86.4651  105.2242   21.1556 N   0  0  0  0  0  0  0  0  0  0  0  0
   87.4031  104.6353   22.0504 C   0  0  0  0  0  0  0  0  0  0  0  0
   88.7716  104.5131   21.7481 C   0  0  0  0  0  0  0  0  0  0  0  0
   89.7053  103.9393   22.6392 C   0  0  0  0  0  0  0  0  0  0  0  0
   89.2073  103.5055   23.8814 C   0  0  0  0  0  0  0  0  0  0  0  0
   90.0163  102.9522   24.7980 F   0  0  0  0  0  0  0  0  0  0  0  0
   87.8586  103.6036   24.2106 C   0  0  0  0  0  0  0  0  0  0  0  0
   86.9615  104.1575   23.2958 C   0  0  0  0  0  0  0  0  0  0  0  0
   85.5223  104.2467   23.6541 C   0  0  0  0  0  0  0  0  0  0  0  0
   85.1600  103.9649   24.7909 O   0  0  0  0  0  0  0  0  0  0  0  0
   91.0568  103.8799   22.2424 N   0  0  0  0  0  0  0  0  0  0  0  0
   91.3476  103.5041   20.8391 C   0  0  0  0  0  0  0  0  0  0  0  0
   92.8627  103.2540   20.6571 C   0  0  0  0  0  0  0  0  0  0  0  0
   93.6947  104.4077   21.0514 N   0  0  0  0  0  0  0  0  0  0  0  0
   93.3649  104.7925   22.4359 C   0  0  0  0  0  0  0  0  0  0  0  0
   91.8575  105.0563   22.6665 C   0  0  0  0  0  0  0  0  0  0  0  0
   94.6769  104.1397   21.0037 H   0  0  0  0  0  0  0  0  0  0  0  0
   82.3503  104.1141   21.9792 O   0  0  0  0  0  0  0  0  0  0  0  0
   83.1222  104.7032   22.7187 C   0  0  0  0  0  0  0  0  0  0  0  0
   82.6715  105.3706   23.7905 O   0  0  0  0  0  0  0  0  0  0  0  0
   81.6965  105.3078   23.7388 H   0  0  0  0  0  0  0  0  0  0  0  0
   86.8580  105.6969   19.8146 C   0  0  0  0  0  0  0  0  0  0  0  0
   86.3366  105.0558   18.5501 C   0  0  0  0  0  0  0  0  0  0  0  0
   85.8891  106.4335   18.9221 C   0  0  0  0  0  0  0  0  0  0  0  0
 20 21  2  0  0  0
 21 22  1  0  0  0
 21  1  1  0  0  0
  1  2  2  0  0  0
  2  3  1  0  0  0
  3 24  1  0  0  0
 24 25  1  0  0  0
 25 26  1  0  0  0
  3  4  1  0  0  0
  4  5  2  0  0  0
  5  6  1  0  0  0
  6 13  1  0  0  0
 13 14  1  0  0  0
 14 15  1  0  0  0
 15 16  1  0  0  0
 16 17  1  0  0  0
 17 18  1  0  0  0
  6  7  2  0  0  0
  7  8  1  0  0  0
  7  9  1  0  0  0
  9 10  2  0  0  0
 10 11  1  0  0  0
 11 12  2  0  0  0
 11  1  1  0  0  0
 26 24  1  0  0  0
 10  4  1  0  0  0
 18 13  1  0  0  0
 22 23  1  0  0  0
 16 19  1  0  0  0
M  END
> <minimizedAffinity>
-6.88040

$$$$
decoy_chlorpromazine


 21 23  0  0  0  0  0  0  0  0999 V2000
   86.4962  106.0504   20.9342 N   0  0  0  0  0  0  0  0  0  0  0  0
   85.2300  105.8526   21.5601 C   0  0  0  0  0  0  0  0  0  0  0  0
   84.0974  106.6350   21.2374 C   0  0  0  0  0  0  0  0  0  0  0  0
   82.8529  106.4579   21.8551 C   0  0  0  0  0  0  0  0  0  0  0  0
   82.6956  105.4864   22.8277 C   0  0  0  0  0  0  0  0  0  0  0  0
   83.7859  104.6990   23.1769 C   0  0  0  0  0  0  0  0  0  0  0  0
   85.0407  104.8756   22.5586 C   0  0  0  0  0  0  0  0  0  0  0  0
   86.3160  103.7656   23.1038 S   0  0  0  0  0  0  0  0  0  0  0  0
   87.7630  104.4367   22.3237 C   0  0  0  0  0  0  0  0  0  0  0  0
   88.9844  103.8603   22.7294 C   0  0  0  0  0  0  0  0  0  0  0  0
   90.1921  104.2808   22.1849 C   0  0  0  0  0  0  0  0  0  0  0  0
   90.1797  105.2826   21.2307 C   0  0  0  0  0  0  0  0  0  0  0  0
   91.6630  105.8291   20.5481 Cl  0  0  0  0  0  0  0  0  0  0  0  0
   88.9731  105.8586   20.8197 C   0  0  0  0  0  0  0  0  0  0  0  0
   87.7246  105.4531   21.3456 C   0  0  0  0  0  0  0  0  0  0  0  0
   86.5190  106.8717   19.6966 C   0  0  0  0  0  0  0  0  0  0  0  0
   86.0833  106.0523   18.4718 C   0  0  0  0  0  0  0  0  0  0  0  0
   85.4219  106.9239   17.3974 C   0  0  0  0  0  0  0  0  0  0  0  0
   85.0381  104.7278   16.4885 C   0  0  0  0  0  0  0  0  0  0  0  0
   84.7212  106.1541   16.3570 N   0  0  0  0  0  0  0  0  0  0  0  0
   85.0810  106.6083   15.0104 C   0  0  0  0  0  0  0  0  0  0  0  0
 19 20  1  0  0  0
 20 21  1  0  0  0
 20 18  1  0  0  0
 18 17  1  0  0  0
 17 16  1  0  0  0
 16  1  1  0  0  0
  1  2  1  0  0  0
  2  3  2  0  0  0
  3  4  1  0  0  0
  4  5  2  0  0  0
  5  6  1  0  0  0
  6  7  2  0  0  0
  7  8  1  0  0  0
  8  9  1  0  0  0
  9 10  2  0  0  0
 10 11  1  0  0  0
 11 12  2  0  0  0
 12 13  1  0  0  0
 12 14  1  0  0  0
 14 15  2  0  0  0
 15  1  1  0  0  0
  7  2  1  0  0  0
 15  9  1  0  0  0
M  END
> <minimizedAffinity>
-5.70107

$$$$
decoy_celecoxib


 28 30  0  0  0  0  0  0  0  0999 V2000
   85.4951  107.6064   19.7173 C   0  0  0  0  0  0  0  0  0  0  0  0
   85.9646  108.8241   20.1745 C   0  0  0  0  0  0  0  0  0  0  0  0
   86.6965  109.3923   19.1115 C   0  0  0  0  0  0  0  0  0  0  0  0
   86.6826  108.5804   18.0426 N   0  0  0  0  0  0  0  0  0  0  0  0
   85.8765  107.5302   18.3763 N   0  0  0  0  0  0  0  0  0  0  0  0
   82.7879  103.6253   22.9036 C   0  0  0  0  0  0  0  0  0  0  0  0
   83.4927  104.6409   22.0533 C   0  0  0  0  0  0  0  0  0  0  0  0
   84.8906  104.7080   22.0417 C   0  0  0  0  0  0  0  0  0  0  0  0
   85.5470  105.6739   21.2749 C   0  0  0  0  0  0  0  0  0  0  0  0
   84.8134  106.5865   20.5076 C   0  0  0  0  0  0  0  0  0  0  0  0
   83.4154  106.5409   20.5436 C   0  0  0  0  0  0  0  0  0  0  0  0
   82.7601  105.5742   21.3107 C   0  0  0  0  0  0  0  0  0  0  0  0
   85.5485  106.5738   17.3609 C   0  0  0  0  0  0  0  0  0  0  0  0
   85.3054  107.0328   16.0513 C   0  0  0  0  0  0  0  0  0  0  0  0
   84.9797  106.1394   15.0265 C   0  0  0  0  0  0  0  0  0  0  0  0
   84.8926  104.7761   15.3060 C   0  0  0  0  0  0  0  0  0  0  0  0
   85.0985  104.3062   16.6040 C   0  0  0  0  0  0  0  0  0  0  0  0
   85.4236  105.2037   17.6285 C   0  0  0  0  0  0  0  0  0  0  0  0
   84.4492  103.6457   14.0209 S   0  0  0  0  0  0  0  0  0  0  0  0
   83.3353  102.6583   14.7974 N   0  0  0  0  0  0  0  0  0  0  0  0
   83.7082  104.3501   13.0006 O   0  0  0  0  0  0  0  0  0  0  0  0
   85.5820  102.8043   13.7144 O   0  0  0  0  0  0  0  0  0  0  0  0
   82.4245  102.7446   14.3460 H   0  0  0  0  0  0  0  0  0  0  0  0
   83.6886  101.7017   14.8324 H   0  0  0  0  0  0  0  0  0  0  0  0
   87.4395  110.7011   19.1305 C   0  0  0  0  0  0  0  0  0  0  0  0
   88.7319  110.5633   19.5282 F   0  0  0  0  0  0  0  0  0  0  0  0
   86.8617  111.6124   19.9574 F   0  0  0  0  0  0  0  0  0  0  0  0
   87.4785  111.2756   17.8954 F   0  0  0  0  0  0  0  0  0  0  0  0
  6  7  1  0  0  0
  7  8  2  0  0  0
  8  9  1  0  0  0
  9 10  2  0  0  0
 10  1  1  0  0  0
  1  2  2  0  0  0
  2  3  1  0  0  0
  3 25  1  0  0  0
 25 26  1  0  0  0
 25 27  1  0  0  0
 25 28  1  0  0  0
  3  4  2  0  0  0
  4  5  1  0  0  0
  5 13  1  0  0  0
 13 14  2  0  0  0
 14 15  1  0  0  0
 15 16  2  0  0  0
 16 19  1  0  0  0
 19 20  1  0  0  0
 19 21  2  0  0  0
 19 22  2  0  0  0
 16 17  1  0  0  0
 17 18  2  0  0  0
 10 11  1  0  0  0
 11 12  2  0  0  0
 12  7  1  0  0  0
  5  1  1  0  0  0
 18 13  1  0  0  0
 20 23  1  0  0  0
 20 24  1  0  0  0
M  END
> <minimizedAffinity>
-7.66837

$$$$
decoy_captopril


 16 16  0  0  0  0  0  0  0  0999 V2000
   90.7028  103.6132   23.7827 C   0  0  0  0  0  0  0  0  0  0  0  0
   89.5796  103.2159   23.4660 O   0  0  0  0  0  0  0  0  0  0  0  0
   91.7195  103.6642   22.8526 N   0  0  0  0  0  0  0  0  0  0  0  0
   92.9974  104.3467   22.9612 C   0  0  0  0  0  0  0  0  0  0  0  0
   93.2912  104.7897   21.5376 C   0  0  0  0  0  0  0  0  0  0  0  0
   92.7186  103.6545   20.7011 C   0  0  0  0  0  0  0  0  0  0  0  0
   91.4712  103.2144   21.4760 C   0  0  0  0  0  0  0  0  0  0  0  0
   91.2971  101.7017   21.3182 C   0  0  0  0  0  0  0  0  0  0  0  0
   92.2082  100.8858   21.2951 O   0  0  0  0  0  0  0  0  0  0  0  0
   90.0166  101.2760   21.2907 O   0  0  0  0  0  0  0  0  0  0  0  0
   90.0924  100.3093   21.1544 H   0  0  0  0  0  0  0  0  0  0  0  0
   90.8311  102.8224   26.1488 C   0  0  0  0  0  0  0  0  0  0  0  0
   91.0228  104.0254   25.2211 C   0  0  0  0  0  0  0  0  0  0  0  0
   90.1163  105.2026   25.6179 C   0  0  0  0  0  0  0  0  0  0  0  0
   90.3920  106.6864   24.5927 S   0  0  0  0  0  0  0  0  0  0  0  0
   89.9406  106.1668   23.4420 H   0  0  0  0  0  0  0  0  0  0  0  0
 12 13  1  0  0  0
 13 14  1  0  0  0
 14 15  1  0  0  0
 13  1  1  0  0  0
  1  2  2  0  0  0
  1  3  1  0  0  0
  3  4  1  0  0  0
  4  5  1  0  0  0
  5  6  1  0  0  0
  6  7  1  0  0  0
  7  8  1  0  0  0
  8  9  2  0  0  0
  8 10  1  0  0  0
  7  3  1  0  0  0
 15 16  1  0  0  0
 10 11  1  0  0  0
M  END
> <minimizedAffinity>
-4.93113

$$$$
decoy_caffeine


 14 15  0  0  0  0  0  0  0  0999 V2000
   92.6711  102.4280   19.7495 C   0  0  0  0  0  0  0  0  0  0  0  0
   92.1843  102.4035   21.1054 N   0  0  0  0  0  0  0  0  0  0  0  0
   91.6777  101.3141   21.7637 C   0  0  0  0  0  0  0  0  0  0  0  0
   91.3165  101.6149   22.9954 N   0  0  0  0  0  0  0  0  0  0  0  0
   91.6051  102.9403   23.1190 C   0  0  0  0  0  0  0  0  0  0  0  0
   92.1390  103.4540   21.9764 C   0  0  0  0  0  0  0  0  0  0  0  0
   92.5282  104.8141   21.8412 C   0  0  0  0  0  0  0  0  0  0  0  0
   93.0085  105.2671   20.8065 O   0  0  0  0  0  0  0  0  0  0  0  0
   92.3033  105.5591   23.0026 N   0  0  0  0  0  0  0  0  0  0  0  0
   92.6594  106.9644   22.9925 C   0  0  0  0  0  0  0  0  0  0  0  0
   91.7533  105.0642   24.2038 C   0  0  0  0  0  0  0  0  0  0  0  0
   91.5928  105.8037   25.1796 O   0  0  0  0  0  0  0  0  0  0  0  0
   91.4031  103.7140   24.2362 N   0  0  0  0  0  0  0  0  0  0  0  0
   90.8312  103.1266   25.4339 C   0  0  0  0  0  0  0  0  0  0  0  0
  1  2  1  0  0  0
  2  3  1  0  0  0
  3  4  2  0  0  0
  4  5  1  0  0  0
  5  6  2  0  0  0
  6  7  1  0  0  0
  7  8  2  0  0  0
  7  9  1  0  0  0
  9 10  1  0  0  0
  9 11  1  0  0  0
 11 12  2  0  0  0
 11 13  1  0  0  0
 13 14  1  0  0  0
  6  2  1  0  0  0
 13  5  1  0  0  0
M  END
> <minimizedAffinity>
-4.79393

$$$$
decoy_atenolol


 23 23  0  0  0  0  0  0  0  0999 V2000
   85.9003  105.5392   18.6854 C   0  0  0  0  0  0  0  0  0  0  0  0
   85.9335  106.9129   18.4554 C   0  0  0  0  0  0  0  0  0  0  0  0
   85.5204  107.4303   17.2228 C   0  0  0  0  0  0  0  0  0  0  0  0
   85.0738  106.5797   16.2028 C   0  0  0  0  0  0  0  0  0  0  0  0
   85.0444  105.1996   16.4384 C   0  0  0  0  0  0  0  0  0  0  0  0
   85.4575  104.6885   17.6702 C   0  0  0  0  0  0  0  0  0  0  0  0
   86.2715  104.9062   19.8395 O   0  0  0  0  0  0  0  0  0  0  0  0
   87.2907  105.5373   20.6270 C   0  0  0  0  0  0  0  0  0  0  0  0
   87.5084  104.6735   21.8759 C   0  0  0  0  0  0  0  0  0  0  0  0
   86.8036  103.4318   21.7367 O   0  0  0  0  0  0  0  0  0  0  0  0
   85.9235  103.6584   21.3857 H   0  0  0  0  0  0  0  0  0  0  0  0
   88.9983  104.4065   22.1831 C   0  0  0  0  0  0  0  0  0  0  0  0
   89.4299  103.0260   21.9175 N   0  0  0  0  0  0  0  0  0  0  0  0
   88.9981  102.6722   21.0661 H   0  0  0  0  0  0  0  0  0  0  0  0
   91.3383  102.2205   20.5265 C   0  0  0  0  0  0  0  0  0  0  0  0
   90.8887  102.8755   21.8342 C   0  0  0  0  0  0  0  0  0  0  0  0
   91.3413  102.0239   23.0223 C   0  0  0  0  0  0  0  0  0  0  0  0
   84.6325  107.1448   14.8748 C   0  0  0  0  0  0  0  0  0  0  0  0
   85.0642  106.2939   13.6974 C   0  0  0  0  0  0  0  0  0  0  0  0
   84.0527  105.6949   13.0004 N   0  0  0  0  0  0  0  0  0  0  0  0
   86.2341  106.1522   13.3567 O   0  0  0  0  0  0  0  0  0  0  0  0
   83.1787  105.4921   13.4685 H   0  0  0  0  0  0  0  0  0  0  0  0
   84.3502  105.0379   12.2905 H   0  0  0  0  0  0  0  0  0  0  0  0
 15 16  1  0  0  0
 16 17  1  0  0  0
 16 13  1  0  0  0
 13 12  1  0  0  0
 12  9  1  0  0  0
  9 10  1  0  0  0
  9  8  1  0  0  0
  8  7  1  0  0  0
  7  1  1  0  0  0
  1  2  2  0  0  0
  2  3  1  0  0  0
  3  4  2  0  0  0
  4 18  1  0  0  0
 18 19  1  0  0  0
 19 20  1  0  0  0
 19 21  2  0  0  0
  4  5  1  0  0  0
  5  6  2  0  0  0
  6  1  1  0  0  0
 13 14  1  0  0  0
 10 11  1  0  0  0
 20 22  1  0  0  0
 20 23  1  0  0  0
M  END
> <minimizedAffinity>
-6.36507

$$$$
decoy_aspirin


 14 14  0  0  0  0  0  0  0  0999 V2000
   91.7727  103.1324   23.1272 C   0  0  0  0  0  0  0  0  0  0  0  0
   92.3360  104.2947   23.6686 C   0  0  0  0  0  0  0  0  0  0  0  0
   93.2025  105.0699   22.9002 C   0  0  0  0  0  0  0  0  0  0  0  0
   93.4977  104.6921   21.5919 C   0  0  0  0  0  0  0  0  0  0  0  0
   92.9190  103.5418   21.0475 C   0  0  0  0  0  0  0  0  0  0  0  0
   92.0394  102.7505   21.8054 C   0  0  0  0  0  0  0  0  0  0  0  0
   91.4575  101.5667   21.1247 C   0  0  0  0  0  0  0  0  0  0  0  0
   92.0806  100.7804   20.4321 O   0  0  0  0  0  0  0  0  0  0  0  0
   90.1323  101.4154   21.2883 O   0  0  0  0  0  0  0  0  0  0  0  0
   89.9337  100.6098   20.7657 H   0  0  0  0  0  0  0  0  0  0  0  0
   90.9002  102.4262   23.9587 O   0  0  0  0  0  0  0  0  0  0  0  0
   89.3615  103.0844   25.6085 C   0  0  0  0  0  0  0  0  0  0  0  0
   89.6908  103.0848   24.1456 C   0  0  0  0  0  0  0  0  0  0  0  0
   88.9832  103.5816   23.2790 O   0  0  0  0  0  0  0  0  0  0  0  0
 12 13  1  0  0  0
 13 14  2  0  0  0
 13 11  1  0  0  0
 11  1  1  0  0  0
  1  2  2  0  0  0
  2  3  1  0  0  0
  3  4  2  0  0  0
  4  5  1  0  0  0
  5  6  2  0  0  0
  6  7  1  0  0  0
  7  8  2  0  0  0
  7  9  1  0  0  0
  6  1  1  0  0  0
  9 10  1  0  0  0
M  END
> <minimizedAffinity>
-5.25398

$$$$
decoy_amlodipine


 31 32  0  0  0  0  0  0  0  0999 V2000
   88.5284  105.3799   21.8336 C   0  0  0  0  0  0  0  0  0  0  0  0
   88.0392  106.1225   20.8134 C   0  0  0  0  0  0  0  0  0  0  0  0
   88.8922  106.9585   20.1024 N   0  0  0  0  0  0  0  0  0  0  0  0
   90.2073  107.2149   20.4474 C   0  0  0  0  0  0  0  0  0  0  0  0
   90.8773  108.3382   19.7003 C   0  0  0  0  0  0  0  0  0  0  0  0
   90.7825  106.4926   21.4346 C   0  0  0  0  0  0  0  0  0  0  0  0
   90.0143  105.4179   22.2017 C   0  0  0  0  0  0  0  0  0  0  0  0
   88.4098  107.6128   19.4816 H   0  0  0  0  0  0  0  0  0  0  0  0
   90.6617  104.0402   21.9991 C   0  0  0  0  0  0  0  0  0  0  0  0
   90.8551  103.5590   20.6851 C   0  0  0  0  0  0  0  0  0  0  0  0
   91.4358  102.3121   20.4474 C   0  0  0  0  0  0  0  0  0  0  0  0
   91.8398  101.5192   21.5153 C   0  0  0  0  0  0  0  0  0  0  0  0
   91.6646  101.9757   22.8205 C   0  0  0  0  0  0  0  0  0  0  0  0
   91.0822  103.2256   23.0656 C   0  0  0  0  0  0  0  0  0  0  0  0
   90.9180  103.6932   24.7206 Cl  0  0  0  0  0  0  0  0  0  0  0  0
   87.6348  104.4871   22.6069 C   0  0  0  0  0  0  0  0  0  0  0  0
   87.0378  103.5328   22.1321 O   0  0  0  0  0  0  0  0  0  0  0  0
   87.5644  104.9092   23.8910 O   0  0  0  0  0  0  0  0  0  0  0  0
   87.6756  104.2838   26.2267 C   0  0  0  0  0  0  0  0  0  0  0  0
   87.1356  103.9351   24.8528 C   0  0  0  0  0  0  0  0  0  0  0  0
   92.1690  106.7144   21.8876 C   0  0  0  0  0  0  0  0  0  0  0  0
   93.1499  106.3365   21.2673 O   0  0  0  0  0  0  0  0  0  0  0  0
   92.1718  107.4397   23.0343 O   0  0  0  0  0  0  0  0  0  0  0  0
   92.8814  106.8169   24.1047 C   0  0  0  0  0  0  0  0  0  0  0  0
   86.5774  106.1446   20.3948 C   0  0  0  0  0  0  0  0  0  0  0  0
   86.5127  106.1707   18.9572 O   0  0  0  0  0  0  0  0  0  0  0  0
   85.9976  104.9530   18.4059 C   0  0  0  0  0  0  0  0  0  0  0  0
   85.0923  105.1954   17.1882 C   0  0  0  0  0  0  0  0  0  0  0  0
   84.2827  106.4088   17.3361 N   0  0  0  0  0  0  0  0  0  0  0  0
   84.9175  107.1805   17.5552 H   0  0  0  0  0  0  0  0  0  0  0  0
   83.6946  106.3182   18.1646 H   0  0  0  0  0  0  0  0  0  0  0  0
 19 20  1  0  0  0
 20 18  1  0  0  0
 18 16  1  0  0  0
 16 17  2  0  0  0
 16  1  1  0  0  0
  1  2  2  0  0  0
  2 25  1  0  0  0
 25 26  1  0  0  0
 26 27  1  0  0  0
 27 28  1  0  0  0
 28 29  1  0  0  0
  2  3  1  0  0  0
  3  4  1  0  0  0
  4  5  1  0  0  0
  4  6  2  0  0  0
  6 21  1  0  0  0
 21 22  2  0  0  0
 21 23  1  0  0  0
 23 24  1  0  0  0
  6  7  1  0  0  0
  7  9  1  0  0  0
  9 10  2  0  0  0
 10 11  1  0  0  0
 11 12  2  0  0  0
 12 13  1  0  0  0
 13 14  2  0  0  0
 14 15  1  0  0  0
  7  1  1  0  0  0
 14  9  1  0  0  0
 29 30  1  0  0  0
 29 31  1  0  0  0
  3  8  1  0  0  0
M  END
> <minimizedAffinity>
-6.17398

$$$$
decoy_albendazole


 20 21  0  0  0  0  0  0  0  0999 V2000
   79.2859  109.3810    4.3810 C   0  0  0  0  0  0  0  0  0  0  0  0
   80.4595  108.6453    4.5978 C   0  0  0  0  0  0  0  0  0  0  0  0
   80.4287  107.2701    4.8633 C   0  0  0  0  0  0  0  0  0  0  0  0
   79.1688  106.6749    4.9094 C   0  0  0  0  0  0  0  0  0  0  0  0
   78.7606  105.3878    5.1390 N   0  0  0  0  0  0  0  0  0  0  0  0
   77.3904  105.3538    5.0771 C   0  0  0  0  0  0  0  0  0  0  0  0
   76.8950  106.5419    4.8206 N   0  0  0  0  0  0  0  0  0  0  0  0
   77.9839  107.3756    4.7138 C   0  0  0  0  0  0  0  0  0  0  0  0
   78.0342  108.7525    4.4516 C   0  0  0  0  0  0  0  0  0  0  0  0
   79.3441  104.5828    5.3277 H   0  0  0  0  0  0  0  0  0  0  0  0
   76.6416  104.2252    5.2605 N   0  0  0  0  0  0  0  0  0  0  0  0
   76.6554  103.4971    6.4117 C   0  0  0  0  0  0  0  0  0  0  0  0
   77.3209  103.7420    7.4111 O   0  0  0  0  0  0  0  0  0  0  0  0
   76.0514  103.9280    4.4985 H   0  0  0  0  0  0  0  0  0  0  0  0
   75.8092  102.4429    6.2846 O   0  0  0  0  0  0  0  0  0  0  0  0
   74.4592  102.8072    5.9929 C   0  0  0  0  0  0  0  0  0  0  0  0
   79.4221  111.1343    4.0575 S   0  0  0  0  0  0  0  0  0  0  0  0
   81.1913  111.2663    3.6175 C   0  0  0  0  0  0  0  0  0  0  0  0
   83.1971  112.7806    3.5893 C   0  0  0  0  0  0  0  0  0  0  0  0
   81.8282  112.5246    4.2032 C   0  0  0  0  0  0  0  0  0  0  0  0
 19 20  1  0  0  0
 20 18  1  0  0  0
 18 17  1  0  0  0
 17  1  1  0  0  0
  1  2  2  0  0  0
  2  3  1  0  0  0
  3  4  2  0  0  0
  4  5  1  0  0  0
  5  6  1  0  0  0
  6 11  1  0  0  0
 11 12  1  0  0  0
 12 13  2  0  0  0
 12 15  1  0  0  0
 15 16  1  0  0  0
  6  7  2  0  0  0
  7  8  1  0  0  0
  8  9  2  0  0  0
  9  1  1  0  0  0
  8  4  1  0  0  0
  5 10  1  0  0  0
 11 14  1  0  0  0
M  END
> <minimizedAffinity>
-5.65756

$$$$
decoy_acetaminophen


 13 13  0  0  0  0  0  0  0  0999 V2000
   85.0037  106.0105   15.6350 C   0  0  0  0  0  0  0  0  0  0  0  0
   85.1928  106.3844   14.2973 C   0  0  0  0  0  0  0  0  0  0  0  0
   85.2453  105.4191   13.2886 C   0  0  0  0  0  0  0  0  0  0  0  0
   85.1091  104.0773   13.6149 C   0  0  0  0  0  0  0  0  0  0  0  0
   85.1658  103.1666   12.6030 O   0  0  0  0  0  0  0  0  0  0  0  0
   84.9215  103.6856   14.9347 C   0  0  0  0  0  0  0  0  0  0  0  0
   84.8693  104.6545   15.9437 C   0  0  0  0  0  0  0  0  0  0  0  0
   85.0549  102.2786   12.9811 H   0  0  0  0  0  0  0  0  0  0  0  0
   85.3491  108.3805   18.5501 C   0  0  0  0  0  0  0  0  0  0  0  0
   85.6547  107.1147   17.7881 C   0  0  0  0  0  0  0  0  0  0  0  0
   86.4193  106.2755   18.2501 O   0  0  0  0  0  0  0  0  0  0  0  0
   84.9634  107.0454   16.5921 N   0  0  0  0  0  0  0  0  0  0  0  0
   84.3497  107.8206   16.3762 H   0  0  0  0  0  0  0  0  0  0  0  0
  9 10  1  0  0  0
 10 11  2  0  0  0
 10 12  1  0  0  0
 12  1  1  0  0  0
  1  2  2  0  0  0
  2  3  1  0  0  0
  3  4  2  0  0  0
  4  5  1  0  0  0
  4  6  1  0  0  0
  6  7  2  0  0  0
  7  1  1  0  0  0
 12 13  1  0  0  0
  5  8  1  0  0  0
M  END
> <minimizedAffinity>
-5.45981

$$$$
