decoy_warfarin


 24 26  0  0  0  0  0  0  0  0999 V2000
   91.6641  111.6444   87.2752 C   0  0  0  0  0  0  0  0  0  0  0  0
   92.0952  110.6839   86.4367 C   0  0  0  0  0  0  0  0  0  0  0  0
   91.7571  110.7130   85.0968 O   0  0  0  0  0  0  0  0  0  0  0  0
   92.9701  109.6001   86.8905 C   0  0  0  0  0  0  0  0  0  0  0  0
   93.3419  108.4991   86.1068 C   0  0  0  0  0  0  0  0  0  0  0  0
   94.2023  107.5183   86.6160 C   0  0  0  0  0  0  0  0  0  0  0  0
   94.6930  107.6194   87.9170 C   0  0  0  0  0  0  0  0  0  0  0  0
   94.3109  108.6922   88.7162 C   0  0  0  0  0  0  0  0  0  0  0  0
   93.4501  109.6579   88.1942 C   0  0  0  0  0  0  0  0  0  0  0  0
   93.0535  110.6859   89.0626 O   0  0  0  0  0  0  0  0  0  0  0  0
   92.1018  111.6271   88.6949 C   0  0  0  0  0  0  0  0  0  0  0  0
   91.6673  112.4163   89.5270 O   0  0  0  0  0  0  0  0  0  0  0  0
   92.4981  110.3521   84.5814 H   0  0  0  0  0  0  0  0  0  0  0  0
   90.7452  112.7751   86.8132 C   0  0  0  0  0  0  0  0  0  0  0  0
   89.3692  112.2480   86.4017 C   0  0  0  0  0  0  0  0  0  0  0  0
   88.5949  111.4272   87.2360 C   0  0  0  0  0  0  0  0  0  0  0  0
   87.3398  110.9722   86.8246 C   0  0  0  0  0  0  0  0  0  0  0  0
   86.8383  111.3330   85.5769 C   0  0  0  0  0  0  0  0  0  0  0  0
   87.5891  112.1529   84.7393 C   0  0  0  0  0  0  0  0  0  0  0  0
   88.8428  112.6097   85.1494 C   0  0  0  0  0  0  0  0  0  0  0  0
   91.3727  113.7296   85.7784 C   0  0  0  0  0  0  0  0  0  0  0  0
   93.9349  113.9600   85.5296 C   0  0  0  0  0  0  0  0  0  0  0  0
   92.6807  114.2968   86.2924 C   0  0  0  0  0  0  0  0  0  0  0  0
   92.7128  115.0300   87.2817 O   0  0  0  0  0  0  0  0  0  0  0  0
 22 23  1  0  0  0
 23 24  2  0  0  0
 23 21  1  0  0  0
 21 14  1  0  0  0
 14 15  1  0  0  0
 15 16  2  0  0  0
 16 17  1  0  0  0
 17 18  2  0  0  0
 18 19  1  0  0  0
 19 20  2  0  0  0
 14  1  1  0  0  0
  1  2  2  0  0  0
  2  3  1  0  0  0
  2  4  1  0  0  0
  4  5  2  0  0  0
  5  6  1  0  0  0
  6  7  2  0  0  0
  7  8  1  0  0  0
  8  9  2  0  0  0
  9 10  1  0  0  0
 10 11  1  0  0  0
 11 12  2  0  0  0
 20 15  1  0  0  0
 11  1  1  0  0  0
  9  4  1  0  0  0
  3 13  1  0  0  0
M  END
> <minimizedAffinity>
-6.42786

$$$$
decoy_verapamil


 33 34  0  0  0  0  0  0  0  0999 V2000
   92.1655  110.4140   86.0346 C   0  0  0  0  0  0  0  0  0  0  0  0
   93.0071  109.5192   86.9642 C   0  0  0  0  0  0  0  0  0  0  0  0
   93.4881  108.2256   86.2820 C   0  0  0  0  0  0  0  0  0  0  0  0
   94.2664  107.3459   87.1643 N   0  0  0  0  0  0  0  0  0  0  0  0
   94.6724  108.0050   88.4031 C   0  0  0  0  0  0  0  0  0  0  0  0
   95.4084  106.7226   86.4668 C   0  0  0  0  0  0  0  0  0  0  0  0
   95.6827  105.2383   86.7714 C   0  0  0  0  0  0  0  0  0  0  0  0
   94.5731  102.6661   83.4723 C   0  0  0  0  0  0  0  0  0  0  0  0
   93.6045  103.4241   84.1378 C   0  0  0  0  0  0  0  0  0  0  0  0
   93.9671  104.2552   85.1999 C   0  0  0  0  0  0  0  0  0  0  0  0
   95.3017  104.3497   85.6078 C   0  0  0  0  0  0  0  0  0  0  0  0
   96.2752  103.5901   84.9403 C   0  0  0  0  0  0  0  0  0  0  0  0
   95.9210  102.7504   83.8758 C   0  0  0  0  0  0  0  0  0  0  0  0
   93.5151  102.3312   81.3554 C   0  0  0  0  0  0  0  0  0  0  0  0
   94.3088  101.8239   82.4201 O   0  0  0  0  0  0  0  0  0  0  0  0
   96.8097  101.9754   83.1697 O   0  0  0  0  0  0  0  0  0  0  0  0
   98.0501  102.5608   82.8071 C   0  0  0  0  0  0  0  0  0  0  0  0
   91.7605  111.8336   86.5752 C   0  0  0  0  0  0  0  0  0  0  0  0
   92.5831  112.2692   87.8220 C   0  0  0  0  0  0  0  0  0  0  0  0
   93.9476  112.6037   87.7131 C   0  0  0  0  0  0  0  0  0  0  0  0
   94.7141  112.9611   88.8327 C   0  0  0  0  0  0  0  0  0  0  0  0
   94.1507  112.9688   90.1066 C   0  0  0  0  0  0  0  0  0  0  0  0
   92.8098  112.5903   90.2481 C   0  0  0  0  0  0  0  0  0  0  0  0
   92.0409  112.2538   89.1215 C   0  0  0  0  0  0  0  0  0  0  0  0
   94.8166  113.3007   91.2589 O   0  0  0  0  0  0  0  0  0  0  0  0
   95.9465  112.5116   91.6069 C   0  0  0  0  0  0  0  0  0  0  0  0
   92.2740  112.6106   91.5145 O   0  0  0  0  0  0  0  0  0  0  0  0
   90.8500  112.6679   91.5450 C   0  0  0  0  0  0  0  0  0  0  0  0
   91.7268  112.9113   85.3966 C   0  0  0  0  0  0  0  0  0  0  0  0
   90.9093  112.5089   84.1610 C   0  0  0  0  0  0  0  0  0  0  0  0
   91.2411  114.3130   85.8279 C   0  0  0  0  0  0  0  0  0  0  0  0
   90.3447  111.7036   87.0666 C   0  0  0  0  0  0  0  0  0  0  0  0
   89.2544  111.6080   87.4546 N   0  0  0  0  0  0  0  0  0  0  0  0
 14 15  1  0  0  0
 15  8  1  0  0  0
  8  9  2  0  0  0
  9 10  1  0  0  0
 10 11  2  0  0  0
 11  7  1  0  0  0
  7  6  1  0  0  0
  6  4  1  0  0  0
  4  5  1  0  0  0
  4  3  1  0  0  0
  3  2  1  0  0  0
  2  1  1  0  0  0
  1 18  1  0  0  0
 18 32  1  0  0  0
 32 33  3  0  0  0
 18 29  1  0  0  0
 29 30  1  0  0  0
 29 31  1  0  0  0
 18 19  1  0  0  0
 19 20  2  0  0  0
 20 21  1  0  0  0
 21 22  2  0  0  0
 22 25  1  0  0  0
 25 26  1  0  0  0
 22 23  1  0  0  0
 23 27  1  0  0  0
 27 28  1  0  0  0
 23 24  2  0  0  0
 11 12  1  0  0  0
 12 13  2  0  0  0
 13 16  1  0  0  0
 16 17  1  0  0  0
 13  8  1  0  0  0
 24 19  1  0  0  0
M  END
> <minimizedAffinity>
-6.64215

$$$$
decoy_trimethoprim


 25 26  0  0  0  0  0  0  0  0999 V2000
   93.9271  104.0341   85.3668 C   0  0  0  0  0  0  0  0  0  0  0  0
   95.0067  104.8740   85.9827 C   0  0  0  0  0  0  0  0  0  0  0  0
   96.2527  104.3411   86.2501 C   0  0  0  0  0  0  0  0  0  0  0  0
   97.2596  105.0278   86.8189 N   0  0  0  0  0  0  0  0  0  0  0  0
   96.9990  106.2958   87.1360 C   0  0  0  0  0  0  0  0  0  0  0  0
   98.0061  107.0181   87.7452 N   0  0  0  0  0  0  0  0  0  0  0  0
   95.8259  106.9061   86.9477 N   0  0  0  0  0  0  0  0  0  0  0  0
   94.8521  106.1943   86.3627 C   0  0  0  0  0  0  0  0  0  0  0  0
   93.6455  106.8780   86.1945 N   0  0  0  0  0  0  0  0  0  0  0  0
   98.6395  106.3803   88.2079 H   0  0  0  0  0  0  0  0  0  0  0  0
   97.5996  107.7527   88.3076 H   0  0  0  0  0  0  0  0  0  0  0  0
   93.3500  106.8801   85.2238 H   0  0  0  0  0  0  0  0  0  0  0  0
   93.8055  107.8292   86.5243 H   0  0  0  0  0  0  0  0  0  0  0  0
   93.9328  102.1991   82.0261 C   0  0  0  0  0  0  0  0  0  0  0  0
   93.5027  102.9401   83.1261 C   0  0  0  0  0  0  0  0  0  0  0  0
   94.3868  103.2265   84.1739 C   0  0  0  0  0  0  0  0  0  0  0  0
   95.7091  102.7487   84.1058 C   0  0  0  0  0  0  0  0  0  0  0  0
   96.1452  101.9888   83.0145 C   0  0  0  0  0  0  0  0  0  0  0  0
   95.2364  101.6907   81.9868 C   0  0  0  0  0  0  0  0  0  0  0  0
   92.9204  103.0241   80.1238 C   0  0  0  0  0  0  0  0  0  0  0  0
   93.0020  101.9424   81.0525 O   0  0  0  0  0  0  0  0  0  0  0  0
   97.4089  101.4750   82.8759 O   0  0  0  0  0  0  0  0  0  0  0  0
   98.4429  102.3864   82.5277 C   0  0  0  0  0  0  0  0  0  0  0  0
   95.6500  100.9321   80.9171 O   0  0  0  0  0  0  0  0  0  0  0  0
   94.9966   99.6626   80.9507 C   0  0  0  0  0  0  0  0  0  0  0  0
 20 21  1  0  0  0
 21 14  1  0  0  0
 14 15  2  0  0  0
 15 16  1  0  0  0
 16  1  1  0  0  0
  1  2  1  0  0  0
  2  3  2  0  0  0
  3  4  1  0  0  0
  4  5  2  0  0  0
  5  6  1  0  0  0
  5  7  1  0  0  0
  7  8  2  0  0  0
  8  9  1  0  0  0
 16 17  2  0  0  0
 17 18  1  0  0  0
 18 22  1  0  0  0
 22 23  1  0  0  0
 18 19  2  0  0  0
 19 24  1  0  0  0
 24 25  1  0  0  0
 19 14  1  0  0  0
  8  2  1  0  0  0
  6 10  1  0  0  0
  6 11  1  0  0  0
  9 12  1  0  0  0
  9 13  1  0  0  0
M  END
> <minimizedAffinity>
-6.23076

$$$$
decoy_tolbutamide


 20 20  0  0  0  0  0  0  0  0999 V2000
   92.4898  110.2428   86.4609 N   0  0  0  0  0  0  0  0  0  0  0  0
   93.2573  109.4844   87.2971 C   0  0  0  0  0  0  0  0  0  0  0  0
   93.5865  109.8272   88.4198 O   0  0  0  0  0  0  0  0  0  0  0  0
   93.6098  108.2759   86.7258 N   0  0  0  0  0  0  0  0  0  0  0  0
   92.3848  109.9482   85.5035 H   0  0  0  0  0  0  0  0  0  0  0  0
   93.2497  107.9851   85.8286 H   0  0  0  0  0  0  0  0  0  0  0  0
   94.5737  107.1272   87.4393 S   0  0  0  0  0  0  0  0  0  0  0  0
   93.9936  106.7189   88.6986 O   0  0  0  0  0  0  0  0  0  0  0  0
   95.9131  107.6814   87.3924 O   0  0  0  0  0  0  0  0  0  0  0  0
   94.5243  105.7696   86.2986 C   0  0  0  0  0  0  0  0  0  0  0  0
   93.3182  105.4194   85.6887 C   0  0  0  0  0  0  0  0  0  0  0  0
   93.2773  104.3300   84.8169 C   0  0  0  0  0  0  0  0  0  0  0  0
   94.4353  103.5853   84.5545 C   0  0  0  0  0  0  0  0  0  0  0  0
   94.3776  102.3930   83.6451 C   0  0  0  0  0  0  0  0  0  0  0  0
   95.6320  103.9277   85.1988 C   0  0  0  0  0  0  0  0  0  0  0  0
   95.6801  105.0178   86.0699 C   0  0  0  0  0  0  0  0  0  0  0  0
   92.0759  111.5843   86.8157 C   0  0  0  0  0  0  0  0  0  0  0  0
   90.7734  111.5789   87.6129 C   0  0  0  0  0  0  0  0  0  0  0  0
   88.3032  111.4754   87.1281 C   0  0  0  0  0  0  0  0  0  0  0  0
   89.6200  112.1586   86.7958 C   0  0  0  0  0  0  0  0  0  0  0  0
 19 20  1  0  0  0
 20 18  1  0  0  0
 18 17  1  0  0  0
 17  1  1  0  0  0
  1  2  1  0  0  0
  2  3  2  0  0  0
  2  4  1  0  0  0
  4  7  1  0  0  0
  7  8  2  0  0  0
  7  9  2  0  0  0
  7 10  1  0  0  0
 10 11  2  0  0  0
 11 12  1  0  0  0
 12 13  2  0  0  0
 13 14  1  0  0  0
 13 15  1  0  0  0
 15 16  2  0  0  0
 16 10  1  0  0  0
  1  5  1  0  0  0
  4  6  1  0  0  0
M  END
> <minimizedAffinity>
-5.79424

$$$$
decoy_theophylline


 14 15  0  0  0  0  0  0  0  0999 V2000
   95.0838  105.1970   87.2280 C   0  0  0  0  0  0  0  0  0  0  0  0
   95.9125  104.7747   86.1163 N   0  0  0  0  0  0  0  0  0  0  0  0
   95.6654  103.5218   85.5498 C   0  0  0  0  0  0  0  0  0  0  0  0
   94.7959  102.7389   85.9179 O   0  0  0  0  0  0  0  0  0  0  0  0
   96.5407  103.2283   84.4751 C   0  0  0  0  0  0  0  0  0  0  0  0
   96.6262  102.1288   83.6727 N   0  0  0  0  0  0  0  0  0  0  0  0
   97.6505  102.3649   82.7923 C   0  0  0  0  0  0  0  0  0  0  0  0
   98.2085  103.5423   82.9958 N   0  0  0  0  0  0  0  0  0  0  0  0
   97.5142  104.0712   84.0412 C   0  0  0  0  0  0  0  0  0  0  0  0
   97.7207  105.2950   84.6297 N   0  0  0  0  0  0  0  0  0  0  0  0
   98.7699  106.1701   84.1403 C   0  0  0  0  0  0  0  0  0  0  0  0
   96.9108  105.6830   85.6999 C   0  0  0  0  0  0  0  0  0  0  0  0
   97.0531  106.7714   86.2651 O   0  0  0  0  0  0  0  0  0  0  0  0
   96.0433  101.3029   83.7234 H   0  0  0  0  0  0  0  0  0  0  0  0
  1  2  1  0  0  0
  2  3  1  0  0  0
  3  4  2  0  0  0
  3  5  1  0  0  0
  5  6  1  0  0  0
  6  7  1  0  0  0
  7  8  2  0  0  0
  8  9  1  0  0  0
  9 10  1  0  0  0
 10 11  1  0  0  0
 10 12  1  0  0  0
 12 13  2  0  0  0
 12  2  1  0  0  0
  9  5  2  0  0  0
  6 14  1  0  0  0
M  END
> <minimizedAffinity>
-5.30685

$$$$
decoy_sertraline


 21 23  0  0  0  0  0  0  0  0999 V2000
   91.2896  113.1518   88.3176 C   0  0  0  0  0  0  0  0  0  0  0  0
   90.3727  114.2849   87.8218 C   0  0  0  0  0  0  0  0  0  0  0  0
   90.8553  114.8372   86.4857 C   0  0  0  0  0  0  0  0  0  0  0  0
   90.8223  113.7636   85.3856 C   0  0  0  0  0  0  0  0  0  0  0  0
   91.4633  112.4623   85.8445 C   0  0  0  0  0  0  0  0  0  0  0  0
   91.8639  111.5289   84.8680 C   0  0  0  0  0  0  0  0  0  0  0  0
   92.4590  110.3224   85.2303 C   0  0  0  0  0  0  0  0  0  0  0  0
   92.6692  110.0325   86.5724 C   0  0  0  0  0  0  0  0  0  0  0  0
   92.2781  110.9469   87.5507 C   0  0  0  0  0  0  0  0  0  0  0  0
   91.6546  112.1639   87.2107 C   0  0  0  0  0  0  0  0  0  0  0  0
   89.4149  113.6036   84.8089 C   0  0  0  0  0  0  0  0  0  0  0  0
   88.5782  112.5273   85.1416 C   0  0  0  0  0  0  0  0  0  0  0  0
   87.2920  112.4272   84.6031 C   0  0  0  0  0  0  0  0  0  0  0  0
   86.8165  113.4043   83.7264 C   0  0  0  0  0  0  0  0  0  0  0  0
   85.2171  113.2166   83.1013 Cl  0  0  0  0  0  0  0  0  0  0  0  0
   87.6332  114.4864   83.3886 C   0  0  0  0  0  0  0  0  0  0  0  0
   87.1166  115.7386   82.3153 Cl  0  0  0  0  0  0  0  0  0  0  0  0
   88.9214  114.5835   83.9285 C   0  0  0  0  0  0  0  0  0  0  0  0
   89.2901  112.8070   89.6897 C   0  0  0  0  0  0  0  0  0  0  0  0
   90.6803  112.4502   89.4593 N   0  0  0  0  0  0  0  0  0  0  0  0
   90.7677  111.4444   89.3236 H   0  0  0  0  0  0  0  0  0  0  0  0
 19 20  1  0  0  0
 20  1  1  0  0  0
  1  2  1  0  0  0
  2  3  1  0  0  0
  3  4  1  0  0  0
  4 11  1  0  0  0
 11 12  2  0  0  0
 12 13  1  0  0  0
 13 14  2  0  0  0
 14 15  1  0  0  0
 14 16  1  0  0  0
 16 17  1  0  0  0
 16 18  2  0  0  0
  4  5  1  0  0  0
  5  6  2  0  0  0
  6  7  1  0  0  0
  7  8  2  0  0  0
  8  9  1  0  0  0
  9 10  2  0  0  0
 10  1  1  0  0  0
 18 11  1  0  0  0
 10  5  1  0  0  0
 20 21  1  0  0  0
M  END
> <minimizedAffinity>
-6.00698

$$$$
decoy_salbutamol


 21 21  0  0  0  0  0  0  0  0999 V2000
   96.3114  104.4261   85.5213 C   0  0  0  0  0  0  0  0  0  0  0  0
   94.9185  104.2811   85.5322 C   0  0  0  0  0  0  0  0  0  0  0  0
   94.2947  103.4209   84.6316 C   0  0  0  0  0  0  0  0  0  0  0  0
   95.0526  102.6981   83.7110 C   0  0  0  0  0  0  0  0  0  0  0  0
   94.3357  101.8920   82.8707 O   0  0  0  0  0  0  0  0  0  0  0  0
   96.4497  102.8103   83.6731 C   0  0  0  0  0  0  0  0  0  0  0  0
   97.0608  103.6895   84.5880 C   0  0  0  0  0  0  0  0  0  0  0  0
   94.9165  101.4857   82.2122 H   0  0  0  0  0  0  0  0  0  0  0  0
   97.0081  105.3660   86.4902 C   0  0  0  0  0  0  0  0  0  0  0  0
   96.7966  104.8626   87.8134 O   0  0  0  0  0  0  0  0  0  0  0  0
   96.9273  103.8999   87.7659 H   0  0  0  0  0  0  0  0  0  0  0  0
   96.4765  106.8165   86.3663 C   0  0  0  0  0  0  0  0  0  0  0  0
   96.0346  107.4943   87.6031 N   0  0  0  0  0  0  0  0  0  0  0  0
   96.5427  108.3788   87.6455 H   0  0  0  0  0  0  0  0  0  0  0  0
   94.0541  106.6478   88.6894 C   0  0  0  0  0  0  0  0  0  0  0  0
   94.5968  107.7788   87.7829 C   0  0  0  0  0  0  0  0  0  0  0  0
   94.3057  109.1157   88.4823 C   0  0  0  0  0  0  0  0  0  0  0  0
   93.8378  107.6877   86.4499 C   0  0  0  0  0  0  0  0  0  0  0  0
   97.2784  102.0303   82.6831 C   0  0  0  0  0  0  0  0  0  0  0  0
   98.3019  102.8141   82.0837 O   0  0  0  0  0  0  0  0  0  0  0  0
   98.7774  102.2346   81.4655 H   0  0  0  0  0  0  0  0  0  0  0  0
 15 16  1  0  0  0
 16 17  1  0  0  0
 16 18  1  0  0  0
 16 13  1  0  0  0
 13 12  1  0  0  0
 12  9  1  0  0  0
  9 10  1  0  0  0
  9  1  1  0  0  0
  1  2  2  0  0  0
  2  3  1  0  0  0
  3  4  2  0  0  0
  4  5  1  0  0  0
  4  6  1  0  0  0
  6 19  1  0  0  0
 19 20  1  0  0  0
  6  7  2  0  0  0
  7  1  1  0  0  0
 13 14  1  0  0  0
 10 11  1  0  0  0
  5  8  1  0  0  0
 20 21  1  0  0  0
M  END
> <minimizedAffinity>
-6.81129

$$$$
decoy_pyrimethamine


 21 22  0  0  0  0  0  0  0  0999 V2000
   87.7826  114.5187   84.1424 C   0  0  0  0  0  0  0  0  0  0  0  0
   86.6539  115.0307   83.5987 N   0  0  0  0  0  0  0  0  0  0  0  0
   85.6590  114.1867   83.3285 C   0  0  0  0  0  0  0  0  0  0  0  0
   84.5220  114.7120   82.7505 N   0  0  0  0  0  0  0  0  0  0  0  0
   85.6978  112.8722   83.5319 N   0  0  0  0  0  0  0  0  0  0  0  0
   86.8122  112.3798   84.0916 C   0  0  0  0  0  0  0  0  0  0  0  0
   86.8101  110.9911   84.2688 N   0  0  0  0  0  0  0  0  0  0  0  0
   87.9177  113.1606   84.4326 C   0  0  0  0  0  0  0  0  0  0  0  0
   84.0565  113.9975   82.2093 H   0  0  0  0  0  0  0  0  0  0  0  0
   84.7539  115.5742   82.2774 H   0  0  0  0  0  0  0  0  0  0  0  0
   85.8838  110.6529   84.0214 H   0  0  0  0  0  0  0  0  0  0  0  0
   87.0784  110.7303   85.2112 H   0  0  0  0  0  0  0  0  0  0  0  0
   89.1238  112.5866   85.0472 C   0  0  0  0  0  0  0  0  0  0  0  0
   90.2818  112.3592   84.2842 C   0  0  0  0  0  0  0  0  0  0  0  0
   91.4280  111.8132   84.8692 C   0  0  0  0  0  0  0  0  0  0  0  0
   91.4277  111.4930   86.2246 C   0  0  0  0  0  0  0  0  0  0  0  0
   92.8383  110.8220   86.9446 Cl  0  0  0  0  0  0  0  0  0  0  0  0
   90.2931  111.7158   87.0002 C   0  0  0  0  0  0  0  0  0  0  0  0
   89.1477  112.2610   86.4135 C   0  0  0  0  0  0  0  0  0  0  0  0
   89.7276  115.9110   83.2257 C   0  0  0  0  0  0  0  0  0  0  0  0
   88.9011  115.4979   84.4388 C   0  0  0  0  0  0  0  0  0  0  0  0
 20 21  1  0  0  0
 21  1  1  0  0  0
  1  2  2  0  0  0
  2  3  1  0  0  0
  3  4  1  0  0  0
  3  5  2  0  0  0
  5  6  1  0  0  0
  6  7  1  0  0  0
  6  8  2  0  0  0
  8 13  1  0  0  0
 13 14  2  0  0  0
 14 15  1  0  0  0
 15 16  2  0  0  0
 16 17  1  0  0  0
 16 18  1  0  0  0
 18 19  2  0  0  0
  8  1  1  0  0  0
 19 13  1  0  0  0
  4  9  1  0  0  0
  4 10  1  0  0  0
  7 11  1  0  0  0
  7 12  1  0  0  0
M  END
> <minimizedAffinity>
-5.95511

$$$$
decoy_propranolol


 21 22  0  0  0  0  0  0  0  0999 V2000
   96.1776  103.0431   84.7275 O   0  0  0  0  0  0  0  0  0  0  0  0
   95.1008  103.8400   85.0365 C   0  0  0  0  0  0  0  0  0  0  0  0
   93.8006  103.6009   84.5790 C   0  0  0  0  0  0  0  0  0  0  0  0
   92.7586  104.4503   84.9460 C   0  0  0  0  0  0  0  0  0  0  0  0
   93.0049  105.5412   85.7764 C   0  0  0  0  0  0  0  0  0  0  0  0
   94.2965  105.7990   86.2567 C   0  0  0  0  0  0  0  0  0  0  0  0
   94.5390  106.8981   87.0978 C   0  0  0  0  0  0  0  0  0  0  0  0
   95.8203  107.1626   87.5807 C   0  0  0  0  0  0  0  0  0  0  0  0
   96.8765  106.3316   87.2288 C   0  0  0  0  0  0  0  0  0  0  0  0
   96.6506  105.2354   86.3939 C   0  0  0  0  0  0  0  0  0  0  0  0
   95.3636  104.9426   85.8902 C   0  0  0  0  0  0  0  0  0  0  0  0
   97.0480  103.4856   83.6813 C   0  0  0  0  0  0  0  0  0  0  0  0
   97.6561  102.2553   82.9932 C   0  0  0  0  0  0  0  0  0  0  0  0
   98.4155  102.6721   81.8465 O   0  0  0  0  0  0  0  0  0  0  0  0
   97.7936  103.1661   81.2782 H   0  0  0  0  0  0  0  0  0  0  0  0
   96.5774  101.2408   82.5508 C   0  0  0  0  0  0  0  0  0  0  0  0
   95.3398  101.8992   82.1094 N   0  0  0  0  0  0  0  0  0  0  0  0
   95.5870  102.6690   81.4803 H   0  0  0  0  0  0  0  0  0  0  0  0
   94.9975   99.8826   80.6698 C   0  0  0  0  0  0  0  0  0  0  0  0
   94.3606  101.0095   81.4827 C   0  0  0  0  0  0  0  0  0  0  0  0
   93.4707  101.8625   80.5754 C   0  0  0  0  0  0  0  0  0  0  0  0
 19 20  1  0  0  0
 20 21  1  0  0  0
 20 17  1  0  0  0
 17 16  1  0  0  0
 16 13  1  0  0  0
 13 14  1  0  0  0
 13 12  1  0  0  0
 12  1  1  0  0  0
  1  2  1  0  0  0
  2  3  2  0  0  0
  3  4  1  0  0  0
  4  5  2  0  0  0
  5  6  1  0  0  0
  6  7  2  0  0  0
  7  8  1  0  0  0
  8  9  2  0  0  0
  9 10  1  0  0  0
 10 11  2  0  0  0
 11  2  1  0  0  0
 11  6  1  0  0  0
 17 18  1  0  0  0
 14 15  1  0  0  0
M  END
> <minimizedAffinity>
-7.09271

$$$$
decoy_procainamide


 20 20  0  0  0  0  0  0  0  0999 V2000
   95.5309  103.4534   84.0032 N   0  0  0  0  0  0  0  0  0  0  0  0
   95.1456  103.3967   85.3266 C   0  0  0  0  0  0  0  0  0  0  0  0
   94.7375  102.3784   85.8719 O   0  0  0  0  0  0  0  0  0  0  0  0
   95.6398  104.3583   83.5668 H   0  0  0  0  0  0  0  0  0  0  0  0
   95.2156  104.6740   86.0882 C   0  0  0  0  0  0  0  0  0  0  0  0
   94.0941  105.4874   86.2819 C   0  0  0  0  0  0  0  0  0  0  0  0
   94.2123  106.6792   87.0059 C   0  0  0  0  0  0  0  0  0  0  0  0
   95.4507  107.0974   87.5012 C   0  0  0  0  0  0  0  0  0  0  0  0
   95.5347  108.2238   88.3259 N   0  0  0  0  0  0  0  0  0  0  0  0
   96.5560  106.2583   87.3411 C   0  0  0  0  0  0  0  0  0  0  0  0
   96.4491  105.0673   86.6166 C   0  0  0  0  0  0  0  0  0  0  0  0
   96.4671  108.6225   88.3832 H   0  0  0  0  0  0  0  0  0  0  0  0
   94.8278  108.9279   88.1386 H   0  0  0  0  0  0  0  0  0  0  0  0
   95.4093  102.2985   83.1269 C   0  0  0  0  0  0  0  0  0  0  0  0
   93.9919  102.1400   82.5407 C   0  0  0  0  0  0  0  0  0  0  0  0
   93.9840  101.7731   81.1172 N   0  0  0  0  0  0  0  0  0  0  0  0
   95.3591   99.6551   80.7000 C   0  0  0  0  0  0  0  0  0  0  0  0
   93.9992  100.3396   80.8144 C   0  0  0  0  0  0  0  0  0  0  0  0
   93.0296  102.5556   80.3250 C   0  0  0  0  0  0  0  0  0  0  0  0
   92.2762  101.8155   79.2274 C   0  0  0  0  0  0  0  0  0  0  0  0
 17 18  1  0  0  0
 18 16  1  0  0  0
 16 19  1  0  0  0
 19 20  1  0  0  0
 16 15  1  0  0  0
 15 14  1  0  0  0
 14  1  1  0  0  0
  1  2  1  0  0  0
  2  3  2  0  0  0
  2  5  1  0  0  0
  5  6  2  0  0  0
  6  7  1  0  0  0
  7  8  2  0  0  0
  8  9  1  0  0  0
  8 10  1  0  0  0
 10 11  2  0  0  0
 11  5  1  0  0  0
  1  4  1  0  0  0
  9 12  1  0  0  0
  9 13  1  0  0  0
M  END
> <minimizedAffinity>
-6.86256

$$$$
decoy_phenytoin


 21 23  0  0  0  0  0  0  0  0999 V2000
   91.2013  112.2477   83.2631 O   0  0  0  0  0  0  0  0  0  0  0  0
   91.7119  112.1491   84.3642 C   0  0  0  0  0  0  0  0  0  0  0  0
   92.7523  112.8715   84.8246 N   0  0  0  0  0  0  0  0  0  0  0  0
   92.9791  112.5984   86.1393 C   0  0  0  0  0  0  0  0  0  0  0  0
   93.8175  113.1843   86.8139 O   0  0  0  0  0  0  0  0  0  0  0  0
   92.0030  111.4704   86.6044 C   0  0  0  0  0  0  0  0  0  0  0  0
   91.2949  111.2925   85.3450 N   0  0  0  0  0  0  0  0  0  0  0  0
   93.2154  113.5933   84.3009 H   0  0  0  0  0  0  0  0  0  0  0  0
   90.4450  110.7589   85.2384 H   0  0  0  0  0  0  0  0  0  0  0  0
   90.9808  111.8971   87.6683 C   0  0  0  0  0  0  0  0  0  0  0  0
   91.4271  112.5746   88.8233 C   0  0  0  0  0  0  0  0  0  0  0  0
   90.5349  112.9690   89.8224 C   0  0  0  0  0  0  0  0  0  0  0  0
   89.1782  112.6932   89.6910 C   0  0  0  0  0  0  0  0  0  0  0  0
   88.7141  112.0254   88.5613 C   0  0  0  0  0  0  0  0  0  0  0  0
   89.6053  111.6297   87.5591 C   0  0  0  0  0  0  0  0  0  0  0  0
   92.8096  110.2282   87.0097 C   0  0  0  0  0  0  0  0  0  0  0  0
   93.4583  110.1187   88.2536 C   0  0  0  0  0  0  0  0  0  0  0  0
   94.1841  108.9718   88.5865 C   0  0  0  0  0  0  0  0  0  0  0  0
   94.2737  107.9136   87.6865 C   0  0  0  0  0  0  0  0  0  0  0  0
   93.6356  107.9976   86.4528 C   0  0  0  0  0  0  0  0  0  0  0  0
   92.9097  109.1422   86.1176 C   0  0  0  0  0  0  0  0  0  0  0  0
  1  2  2  0  0  0
  2  3  1  0  0  0
  3  4  1  0  0  0
  4  5  2  0  0  0
  4  6  1  0  0  0
  6 10  1  0  0  0
 10 11  2  0  0  0
 11 12  1  0  0  0
 12 13  2  0  0  0
 13 14  1  0  0  0
 14 15  2  0  0  0
  6 16  1  0  0  0
 16 17  2  0  0  0
 17 18  1  0  0  0
 18 19  2  0  0  0
 19 20  1  0  0  0
 20 21  2  0  0  0
  6  7  1  0  0  0
  7  2  1  0  0  0
 15 10  1  0  0  0
 21 16  1  0  0  0
  3  8  1  0  0  0
  7  9  1  0  0  0
M  END
> <minimizedAffinity>
-6.21362

$$$$
decoy_omeprazole


 25 27  0  0  0  0  0  0  0  0999 V2000
   98.2276  101.5819   82.1868 S   0  0  0  0  0  0  0  0  0  0  0  0
   97.2793  100.4163   82.1926 O   0  0  0  0  0  0  0  0  0  0  0  0
   96.1840  105.9541   86.2328 C   0  0  0  0  0  0  0  0  0  0  0  0
   95.0824  105.0990   86.3673 C   0  0  0  0  0  0  0  0  0  0  0  0
   95.0034  103.8922   85.6576 C   0  0  0  0  0  0  0  0  0  0  0  0
   96.0670  103.5904   84.8083 C   0  0  0  0  0  0  0  0  0  0  0  0
   96.3218  102.5250   83.9864 N   0  0  0  0  0  0  0  0  0  0  0  0
   97.5193  102.7479   83.3642 C   0  0  0  0  0  0  0  0  0  0  0  0
   98.0641  103.8832   83.7452 N   0  0  0  0  0  0  0  0  0  0  0  0
   97.1732  104.4187   84.6466 C   0  0  0  0  0  0  0  0  0  0  0  0
   97.2391  105.6163   85.3714 C   0  0  0  0  0  0  0  0  0  0  0  0
   95.7507  101.7016   83.8514 H   0  0  0  0  0  0  0  0  0  0  0  0
   95.3456  107.5267   87.8115 C   0  0  0  0  0  0  0  0  0  0  0  0
   96.3533  107.1482   86.8840 O   0  0  0  0  0  0  0  0  0  0  0  0
   99.7127  101.1705   83.1572 C   0  0  0  0  0  0  0  0  0  0  0  0
  100.5660  100.1323   82.4679 C   0  0  0  0  0  0  0  0  0  0  0  0
  100.6173  100.2245   81.1114 N   0  0  0  0  0  0  0  0  0  0  0  0
  101.3424   99.3086   80.4346 C   0  0  0  0  0  0  0  0  0  0  0  0
  102.0856   98.3069   81.0327 C   0  0  0  0  0  0  0  0  0  0  0  0
  102.8373   97.3291   80.1857 C   0  0  0  0  0  0  0  0  0  0  0  0
  102.1178   98.3043   82.4295 C   0  0  0  0  0  0  0  0  0  0  0  0
  101.3267   99.1918   83.1794 C   0  0  0  0  0  0  0  0  0  0  0  0
  101.2923   99.1257   84.6808 C   0  0  0  0  0  0  0  0  0  0  0  0
  102.8909   97.3728   83.0816 O   0  0  0  0  0  0  0  0  0  0  0  0
  104.2001   97.9031   83.3116 C   0  0  0  0  0  0  0  0  0  0  0  0
 13 14  1  0  0  0
 14  3  1  0  0  0
  3  4  2  0  0  0
  4  5  1  0  0  0
  5  6  2  0  0  0
  6  7  1  0  0  0
  7  8  1  0  0  0
  8  1  1  0  0  0
  1  2  2  0  0  0
  1 15  1  0  0  0
 15 16  1  0  0  0
 16 17  2  0  0  0
 17 18  1  0  0  0
 18 19  2  0  0  0
 19 20  1  0  0  0
 19 21  1  0  0  0
 21 24  1  0  0  0
 24 25  1  0  0  0
 21 22  2  0  0  0
 22 23  1  0  0  0
  8  9  2  0  0  0
  9 10  1  0  0  0
 10 11  2  0  0  0
 11  3  1  0  0  0
 10  6  1  0  0  0
 22 16  1  0  0  0
  7 12  1  0  0  0
M  END
> <minimizedAffinity>
-6.12304

$$$$
decoy_nicotine


 12 13  0  0  0  0  0  0  0  0999 V2000
   98.0085  104.7092   84.4429 C   0  0  0  0  0  0  0  0  0  0  0  0
   96.6097  104.3011   84.4027 N   0  0  0  0  0  0  0  0  0  0  0  0
   96.4286  103.0261   83.7097 C   0  0  0  0  0  0  0  0  0  0  0  0
   95.0015  102.6698   84.0762 C   0  0  0  0  0  0  0  0  0  0  0  0
   94.8597  103.1386   85.5189 C   0  0  0  0  0  0  0  0  0  0  0  0
   96.0249  104.1172   85.7442 C   0  0  0  0  0  0  0  0  0  0  0  0
   95.5683  105.4026   86.3867 C   0  0  0  0  0  0  0  0  0  0  0  0
   94.2534  105.8560   86.2359 C   0  0  0  0  0  0  0  0  0  0  0  0
   93.8625  107.0594   86.8172 C   0  0  0  0  0  0  0  0  0  0  0  0
   94.8047  107.7807   87.5306 C   0  0  0  0  0  0  0  0  0  0  0  0
   96.0834  107.3851   87.6958 N   0  0  0  0  0  0  0  0  0  0  0  0
   96.4338  106.2085   87.1233 C   0  0  0  0  0  0  0  0  0  0  0  0
  1  2  1  0  0  0
  2  3  1  0  0  0
  3  4  1  0  0  0
  4  5  1  0  0  0
  5  6  1  0  0  0
  6  7  1  0  0  0
  7  8  2  0  0  0
  8  9  1  0  0  0
  9 10  2  0  0  0
 10 11  1  0  0  0
 11 12  2  0  0  0
  6  2  1  0  0  0
 12  7  1  0  0  0
M  END
> <minimizedAffinity>
-5.55299

$$$$
decoy_naproxen


 18 19  0  0  0  0  0  0  0  0999 V2000
   94.7204  101.3139   81.6267 C   0  0  0  0  0  0  0  0  0  0  0  0
   96.0758  101.2328   81.9368 C   0  0  0  0  0  0  0  0  0  0  0  0
   96.5891  101.9382   83.0310 C   0  0  0  0  0  0  0  0  0  0  0  0
   95.7567  102.7357   83.8317 C   0  0  0  0  0  0  0  0  0  0  0  0
   96.2596  103.4497   84.9336 C   0  0  0  0  0  0  0  0  0  0  0  0
   95.4228  104.2469   85.7315 C   0  0  0  0  0  0  0  0  0  0  0  0
   94.0607  104.3182   85.4119 C   0  0  0  0  0  0  0  0  0  0  0  0
   93.5482  103.6138   84.3199 C   0  0  0  0  0  0  0  0  0  0  0  0
   94.3836  102.8197   83.5208 C   0  0  0  0  0  0  0  0  0  0  0  0
   93.8839  102.1053   82.4192 C   0  0  0  0  0  0  0  0  0  0  0  0
   92.9312  101.3056   80.0607 C   0  0  0  0  0  0  0  0  0  0  0  0
   94.0924  100.6786   80.5904 O   0  0  0  0  0  0  0  0  0  0  0  0
   95.9987  105.0046   86.9143 C   0  0  0  0  0  0  0  0  0  0  0  0
   97.2368  104.3126   87.4887 C   0  0  0  0  0  0  0  0  0  0  0  0
   96.3168  106.4451   86.5587 C   0  0  0  0  0  0  0  0  0  0  0  0
   95.5854  107.4142   86.6881 O   0  0  0  0  0  0  0  0  0  0  0  0
   97.5648  106.5985   86.0676 O   0  0  0  0  0  0  0  0  0  0  0  0
   97.6471  107.5650   85.9280 H   0  0  0  0  0  0  0  0  0  0  0  0
 11 12  1  0  0  0
 12  1  1  0  0  0
  1  2  2  0  0  0
  2  3  1  0  0  0
  3  4  2  0  0  0
  4  5  1  0  0  0
  5  6  2  0  0  0
  6 13  1  0  0  0
 13 14  1  0  0  0
 13 15  1  0  0  0
 15 16  2  0  0  0
 15 17  1  0  0  0
  6  7  1  0  0  0
  7  8  2  0  0  0
  8  9  1  0  0  0
  9 10  2  0  0  0
 10  1  1  0  0  0
  9  4  1  0  0  0
 17 18  1  0  0  0
M  END
> <minimizedAffinity>
-6.63124

$$$$
decoy_metronidazole


 13 13  0  0  0  0  0  0  0  0999 V2000
   94.6272  107.1981   87.4571 C   0  0  0  0  0  0  0  0  0  0  0  0
   94.4974  106.0671   86.5008 C   0  0  0  0  0  0  0  0  0  0  0  0
   93.3683  105.6887   85.9314 N   0  0  0  0  0  0  0  0  0  0  0  0
   93.6833  104.6172   85.1381 C   0  0  0  0  0  0  0  0  0  0  0  0
   95.0263  104.3575   85.2096 C   0  0  0  0  0  0  0  0  0  0  0  0
   95.5507  105.2578   86.1010 N   0  0  0  0  0  0  0  0  0  0  0  0
   95.7505  103.3461   84.5265 N   0  0  0  0  0  0  0  0  0  0  0  0
   96.6077  103.7086   83.7128 O   0  0  0  0  0  0  0  0  0  0  0  0
   95.4141  102.1784   84.7567 O   0  0  0  0  0  0  0  0  0  0  0  0
   96.9054  105.3318   86.6265 C   0  0  0  0  0  0  0  0  0  0  0  0
   97.2239  104.1669   87.5599 C   0  0  0  0  0  0  0  0  0  0  0  0
   98.4371  104.4138   88.2590 O   0  0  0  0  0  0  0  0  0  0  0  0
   98.5900  103.6644   88.8621 H   0  0  0  0  0  0  0  0  0  0  0  0
  1  2  1  0  0  0
  2  3  2  0  0  0
  3  4  1  0  0  0
  4  5  2  0  0  0
  5  7  1  0  0  0
  7  8  2  0  0  0
  7  9  1  0  0  0
  5  6  1  0  0  0
  6 10  1  0  0  0
 10 11  1  0  0  0
 11 12  1  0  0  0
  6  2  1  0  0  0
 12 13  1  0  0  0
M  CHG 1   7   1
M  CHG 1   9  -1
M  END
> <minimizedAffinity>
-5.42737

$$$$
decoy_metoprolol


 21 21  0  0  0  0  0  0  0  0999 V2000
   95.2289  105.9028   87.0643 O   0  0  0  0  0  0  0  0  0  0  0  0
   93.3375  109.5966   87.5655 C   0  0  0  0  0  0  0  0  0  0  0  0
   94.1869  109.1309   88.5771 C   0  0  0  0  0  0  0  0  0  0  0  0
   94.8403  107.8990   88.4518 C   0  0  0  0  0  0  0  0  0  0  0  0
   94.6549  107.1191   87.3108 C   0  0  0  0  0  0  0  0  0  0  0  0
   93.8093  107.5804   86.3007 C   0  0  0  0  0  0  0  0  0  0  0  0
   93.1560  108.8087   86.4238 C   0  0  0  0  0  0  0  0  0  0  0  0
   92.6363  110.9297   87.6979 C   0  0  0  0  0  0  0  0  0  0  0  0
   91.2866  110.9637   86.9777 C   0  0  0  0  0  0  0  0  0  0  0  0
   89.1080  111.8499   87.1588 C   0  0  0  0  0  0  0  0  0  0  0  0
   90.2760  111.4523   87.8640 O   0  0  0  0  0  0  0  0  0  0  0  0
   96.5816  105.9039   86.5967 C   0  0  0  0  0  0  0  0  0  0  0  0
   97.0413  104.4503   86.4157 C   0  0  0  0  0  0  0  0  0  0  0  0
   96.8305  103.7242   87.6383 O   0  0  0  0  0  0  0  0  0  0  0  0
   95.8959  103.8739   87.8800 H   0  0  0  0  0  0  0  0  0  0  0  0
   96.2874  103.7391   85.2702 C   0  0  0  0  0  0  0  0  0  0  0  0
   95.1406  102.9478   85.7512 N   0  0  0  0  0  0  0  0  0  0  0  0
   95.4947  102.0000   85.9181 H   0  0  0  0  0  0  0  0  0  0  0  0
   94.0216  102.8769   84.8033 C   0  0  0  0  0  0  0  0  0  0  0  0
   93.3049  104.2305   84.7981 C   0  0  0  0  0  0  0  0  0  0  0  0
   94.5099  102.5534   83.3902 C   0  0  0  0  0  0  0  0  0  0  0  0
 10 11  1  0  0  0
 11  9  1  0  0  0
  9  8  1  0  0  0
  8  2  1  0  0  0
  2  3  2  0  0  0
  3  4  1  0  0  0
  4  5  2  0  0  0
  5  1  1  0  0  0
  1 12  1  0  0  0
 12 13  1  0  0  0
 13 14  1  0  0  0
 13 16  1  0  0  0
 16 17  1  0  0  0
 17 19  1  0  0  0
 19 20  1  0  0  0
 19 21  1  0  0  0
  5  6  1  0  0  0
  6  7  2  0  0  0
  7  2  1  0  0  0
 14 15  1  0  0  0
 17 18  1  0  0  0
M  END
> <minimizedAffinity>
-6.33354

$$$$
decoy_loratadine


 27 30  0  0  0  0  0  0  0  0999 V2000
  106.0791  102.0061   86.5065 C   0  0  0  0  0  0  0  0  0  0  0  0
  105.9139  103.1469   86.0912 O   0  0  0  0  0  0  0  0  0  0  0  0
  105.2857  100.9315   86.1576 N   0  0  0  0  0  0  0  0  0  0  0  0
  104.2010  101.1088   85.2020 C   0  0  0  0  0  0  0  0  0  0  0  0
  104.0480   99.8948   84.2773 C   0  0  0  0  0  0  0  0  0  0  0  0
  103.8571   98.5806   85.0316 C   0  0  0  0  0  0  0  0  0  0  0  0
  103.4001   97.4371   84.4466 C   0  0  0  0  0  0  0  0  0  0  0  0
  103.1277   97.4174   82.9888 C   0  0  0  0  0  0  0  0  0  0  0  0
  101.9831   98.0202   82.4512 C   0  0  0  0  0  0  0  0  0  0  0  0
  101.7479   97.9788   81.0761 C   0  0  0  0  0  0  0  0  0  0  0  0
  102.6487   97.3213   80.2410 C   0  0  0  0  0  0  0  0  0  0  0  0
  102.3574   97.2686   78.5458 Cl  0  0  0  0  0  0  0  0  0  0  0  0
  103.7770   96.6920   80.7678 C   0  0  0  0  0  0  0  0  0  0  0  0
  104.0191   96.7275   82.1481 C   0  0  0  0  0  0  0  0  0  0  0  0
  105.1931   95.9966   82.7521 C   0  0  0  0  0  0  0  0  0  0  0  0
  104.7478   94.7796   83.5743 C   0  0  0  0  0  0  0  0  0  0  0  0
  103.9005   94.9772   84.8158 C   0  0  0  0  0  0  0  0  0  0  0  0
  103.6821   93.8447   85.6207 C   0  0  0  0  0  0  0  0  0  0  0  0
  102.8894   93.9252   86.7594 C   0  0  0  0  0  0  0  0  0  0  0  0
  102.3226   95.1440   87.0683 C   0  0  0  0  0  0  0  0  0  0  0  0
  102.4997   96.2573   86.3298 N   0  0  0  0  0  0  0  0  0  0  0  0
  103.2841   96.1703   85.2202 C   0  0  0  0  0  0  0  0  0  0  0  0
  104.2906   98.6644   86.4930 C   0  0  0  0  0  0  0  0  0  0  0  0
  105.4953   99.5910   86.6967 C   0  0  0  0  0  0  0  0  0  0  0  0
  107.0767  101.6523   87.3634 O   0  0  0  0  0  0  0  0  0  0  0  0
  106.2478  101.9676   89.5803 C   0  0  0  0  0  0  0  0  0  0  0  0
  107.1915  102.4934   88.5163 C   0  0  0  0  0  0  0  0  0  0  0  0
 26 27  1  0  0  0
 27 25  1  0  0  0
 25  1  1  0  0  0
  1  2  2  0  0  0
  1  3  1  0  0  0
  3  4  1  0  0  0
  4  5  1  0  0  0
  5  6  1  0  0  0
  6  7  2  0  0  0
  7  8  1  0  0  0
  8  9  2  0  0  0
  9 10  1  0  0  0
 10 11  2  0  0  0
 11 12  1  0  0  0
 11 13  1  0  0  0
 13 14  2  0  0  0
 14 15  1  0  0  0
 15 16  1  0  0  0
 16 17  1  0  0  0
 17 18  2  0  0  0
 18 19  1  0  0  0
 19 20  2  0  0  0
 20 21  1  0  0  0
 21 22  2  0  0  0
  6 23  1  0  0  0
 23 24  1  0  0  0
 24  3  1  0  0  0
 22  7  1  0  0  0
 14  8  1  0  0  0
 22 17  1  0  0  0
M  END
> <minimizedAffinity>
-5.71243

$$$$
decoy_lidocaine


 18 18  0  0  0  0  0  0  0  0999 V2000
   96.2352  103.6883   84.5995 C   0  0  0  0  0  0  0  0  0  0  0  0
   97.0502  104.4355   84.0698 O   0  0  0  0  0  0  0  0  0  0  0  0
   95.3518  103.9948   85.6225 N   0  0  0  0  0  0  0  0  0  0  0  0
   94.5706  103.3438   85.6270 H   0  0  0  0  0  0  0  0  0  0  0  0
   95.1720  105.2436   86.2585 C   0  0  0  0  0  0  0  0  0  0  0  0
   93.9074  105.8690   86.1114 C   0  0  0  0  0  0  0  0  0  0  0  0
   92.7934  105.2544   85.3036 C   0  0  0  0  0  0  0  0  0  0  0  0
   93.6772  107.1261   86.6948 C   0  0  0  0  0  0  0  0  0  0  0  0
   94.6718  107.7602   87.4275 C   0  0  0  0  0  0  0  0  0  0  0  0
   95.8968  107.1297   87.6124 C   0  0  0  0  0  0  0  0  0  0  0  0
   96.1546  105.8579   87.0643 C   0  0  0  0  0  0  0  0  0  0  0  0
   97.4700  105.2275   87.4348 C   0  0  0  0  0  0  0  0  0  0  0  0
   96.1011  102.2218   84.1610 C   0  0  0  0  0  0  0  0  0  0  0  0
   95.9770  102.1179   82.6784 N   0  0  0  0  0  0  0  0  0  0  0  0
   98.3733  101.3880   82.5337 C   0  0  0  0  0  0  0  0  0  0  0  0
   96.9214  101.1071   82.1603 C   0  0  0  0  0  0  0  0  0  0  0  0
   94.5755  101.8782   82.2900 C   0  0  0  0  0  0  0  0  0  0  0  0
   94.3424  100.9258   81.1205 C   0  0  0  0  0  0  0  0  0  0  0  0
 15 16  1  0  0  0
 16 14  1  0  0  0
 14 17  1  0  0  0
 17 18  1  0  0  0
 14 13  1  0  0  0
 13  1  1  0  0  0
  1  2  2  0  0  0
  1  3  1  0  0  0
  3  5  1  0  0  0
  5  6  2  0  0  0
  6  7  1  0  0  0
  6  8  1  0  0  0
  8  9  2  0  0  0
  9 10  1  0  0  0
 10 11  2  0  0  0
 11 12  1  0  0  0
 11  5  1  0  0  0
  3  4  1  0  0  0
M  END
> <minimizedAffinity>
-5.37838

$$$$
decoy_ketoprofen


 20 21  0  0  0  0  0  0  0  0999 V2000
   95.3621  104.9889   85.6729 C   0  0  0  0  0  0  0  0  0  0  0  0
   94.0915  104.6125   85.2101 C   0  0  0  0  0  0  0  0  0  0  0  0
   92.9551  105.3448   85.5610 C   0  0  0  0  0  0  0  0  0  0  0  0
   93.0703  106.4741   86.3706 C   0  0  0  0  0  0  0  0  0  0  0  0
   94.3301  106.8795   86.8214 C   0  0  0  0  0  0  0  0  0  0  0  0
   95.4661  106.1292   86.4870 C   0  0  0  0  0  0  0  0  0  0  0  0
   97.7266  105.1159   84.8002 C   0  0  0  0  0  0  0  0  0  0  0  0
   96.6140  104.2012   85.3133 C   0  0  0  0  0  0  0  0  0  0  0  0
   96.3635  103.0933   84.3034 C   0  0  0  0  0  0  0  0  0  0  0  0
   96.6646  103.0675   83.1215 O   0  0  0  0  0  0  0  0  0  0  0  0
   95.7625  102.0195   84.8627 O   0  0  0  0  0  0  0  0  0  0  0  0
   95.6605  101.3934   84.1149 H   0  0  0  0  0  0  0  0  0  0  0  0
   94.5020  108.0686   87.6951 C   0  0  0  0  0  0  0  0  0  0  0  0
   95.4112  108.0795   88.5214 O   0  0  0  0  0  0  0  0  0  0  0  0
   93.6038  109.2461   87.5926 C   0  0  0  0  0  0  0  0  0  0  0  0
   93.5739  110.1563   88.6556 C   0  0  0  0  0  0  0  0  0  0  0  0
   92.7505  111.2810   88.5898 C   0  0  0  0  0  0  0  0  0  0  0  0
   91.9664  111.5055   87.4583 C   0  0  0  0  0  0  0  0  0  0  0  0
   92.0102  110.6124   86.3873 C   0  0  0  0  0  0  0  0  0  0  0  0
   92.8325  109.4853   86.4487 C   0  0  0  0  0  0  0  0  0  0  0  0
  7  8  1  0  0  0
  8  9  1  0  0  0
  9 10  2  0  0  0
  9 11  1  0  0  0
  8  1  1  0  0  0
  1  2  2  0  0  0
  2  3  1  0  0  0
  3  4  2  0  0  0
  4  5  1  0  0  0
  5 13  1  0  0  0
 13 14  2  0  0  0
 13 15  1  0  0  0
 15 16  2  0  0  0
 16 17  1  0  0  0
 17 18  2  0  0  0
 18 19  1  0  0  0
 19 20  2  0  0  0
  5  6  2  0  0  0
  6  1  1  0  0  0
 20 15  1  0  0  0
 11 12  1  0  0  0
M  END
> <minimizedAffinity>
-7.33602

$$$$
decoy_indomethacin


 26 28  0  0  0  0  0  0  0  0999 V2000
   92.0911  116.2555   84.4909 C   0  0  0  0  0  0  0  0  0  0  0  0
   92.4056  115.6361   85.6945 C   0  0  0  0  0  0  0  0  0  0  0  0
   91.6304  114.5880   86.2022 C   0  0  0  0  0  0  0  0  0  0  0  0
   90.5212  114.1396   85.4583 C   0  0  0  0  0  0  0  0  0  0  0  0
   90.1594  114.7822   84.2718 C   0  0  0  0  0  0  0  0  0  0  0  0
   90.9648  115.8384   83.7794 C   0  0  0  0  0  0  0  0  0  0  0  0
   88.9411  114.2010   83.8142 C   0  0  0  0  0  0  0  0  0  0  0  0
   88.5789  113.2303   84.7368 C   0  0  0  0  0  0  0  0  0  0  0  0
   87.3548  112.3707   84.7532 C   0  0  0  0  0  0  0  0  0  0  0  0
   89.5958  113.1131   85.6910 N   0  0  0  0  0  0  0  0  0  0  0  0
   89.6675  112.1284   86.7142 C   0  0  0  0  0  0  0  0  0  0  0  0
   88.6256  111.5781   87.0687 O   0  0  0  0  0  0  0  0  0  0  0  0
   90.9125  111.6708   87.3727 C   0  0  0  0  0  0  0  0  0  0  0  0
   91.3507  112.2623   88.5647 C   0  0  0  0  0  0  0  0  0  0  0  0
   92.5443  111.8350   89.1523 C   0  0  0  0  0  0  0  0  0  0  0  0
   93.3018  110.8358   88.5400 C   0  0  0  0  0  0  0  0  0  0  0  0
   94.7700  110.3128   89.2672 Cl  0  0  0  0  0  0  0  0  0  0  0  0
   92.8819  110.2632   87.3393 C   0  0  0  0  0  0  0  0  0  0  0  0
   91.6890  110.6866   86.7487 C   0  0  0  0  0  0  0  0  0  0  0  0
   94.3365  116.9825   84.1987 C   0  0  0  0  0  0  0  0  0  0  0  0
   92.9438  117.2614   84.1260 O   0  0  0  0  0  0  0  0  0  0  0  0
   88.1928  114.6084   82.5824 C   0  0  0  0  0  0  0  0  0  0  0  0
   87.1797  115.6851   82.8734 C   0  0  0  0  0  0  0  0  0  0  0  0
   86.8237  116.0738   83.9745 O   0  0  0  0  0  0  0  0  0  0  0  0
   86.6622  116.2416   81.7571 O   0  0  0  0  0  0  0  0  0  0  0  0
   86.0678  116.9397   82.1051 H   0  0  0  0  0  0  0  0  0  0  0  0
 20 21  1  0  0  0
 21  1  1  0  0  0
  1  2  2  0  0  0
  2  3  1  0  0  0
  3  4  2  0  0  0
  4  5  1  0  0  0
  5  6  2  0  0  0
  5  7  1  0  0  0
  7 22  1  0  0  0
 22 23  1  0  0  0
 23 24  2  0  0  0
 23 25  1  0  0  0
  7  8  2  0  0  0
  8  9  1  0  0  0
  8 10  1  0  0  0
 10 11  1  0  0  0
 11 12  2  0  0  0
 11 13  1  0  0  0
 13 14  2  0  0  0
 14 15  1  0  0  0
 15 16  2  0  0  0
 16 17  1  0  0  0
 16 18  1  0  0  0
 18 19  2  0  0  0
  6  1  1  0  0  0
 19 13  1  0  0  0
 10  4  1  0  0  0
 25 26  1  0  0  0
M  END
> <minimizedAffinity>
-5.92007

$$$$
decoy_ibuprofen


 16 16  0  0  0  0  0  0  0  0999 V2000
   95.5361  103.6132   84.9579 C   0  0  0  0  0  0  0  0  0  0  0  0
   94.1472  103.6637   84.7949 C   0  0  0  0  0  0  0  0  0  0  0  0
   93.5302  103.0075   83.7261 C   0  0  0  0  0  0  0  0  0  0  0  0
   94.2877  102.2826   82.7943 C   0  0  0  0  0  0  0  0  0  0  0  0
   95.6784  102.2299   82.9643 C   0  0  0  0  0  0  0  0  0  0  0  0
   96.2942  102.8850   84.0342 C   0  0  0  0  0  0  0  0  0  0  0  0
   93.5949  101.5884   81.6320 C   0  0  0  0  0  0  0  0  0  0  0  0
   93.0448  102.5905   80.6166 C   0  0  0  0  0  0  0  0  0  0  0  0
   94.4791  100.5819   80.9156 C   0  0  0  0  0  0  0  0  0  0  0  0
   95.0273   99.5943   81.3765 O   0  0  0  0  0  0  0  0  0  0  0  0
   94.6770  100.9087   79.6186 O   0  0  0  0  0  0  0  0  0  0  0  0
   95.2621  100.1944   79.2885 H   0  0  0  0  0  0  0  0  0  0  0  0
   96.2028  104.3211   86.1130 C   0  0  0  0  0  0  0  0  0  0  0  0
   97.1250  106.6762   86.5112 C   0  0  0  0  0  0  0  0  0  0  0  0
   95.8794  105.8212   86.2743 C   0  0  0  0  0  0  0  0  0  0  0  0
   94.8322  106.0912   87.3554 C   0  0  0  0  0  0  0  0  0  0  0  0
 14 15  1  0  0  0
 15 16  1  0  0  0
 15 13  1  0  0  0
 13  1  1  0  0  0
  1  2  2  0  0  0
  2  3  1  0  0  0
  3  4  2  0  0  0
  4  7  1  0  0  0
  7  8  1  0  0  0
  7  9  1  0  0  0
  9 10  2  0  0  0
  9 11  1  0  0  0
  4  5  1  0  0  0
  5  6  2  0  0  0
  6  1  1  0  0  0
 11 12  1  0  0  0
M  END
> <minimizedAffinity>
-6.56301

$$$$
decoy_hydrochlorothiazide


 21 22  0  0  0  0  0  0  0  0999 V2000
   90.9125  112.4374   88.3139 C   0  0  0  0  0  0  0  0  0  0  0  0
   89.6899  112.9155   88.8002 C   0  0  0  0  0  0  0  0  0  0  0  0
   89.5469  113.1623   90.1695 C   0  0  0  0  0  0  0  0  0  0  0  0
   90.5731  112.9237   91.0829 C   0  0  0  0  0  0  0  0  0  0  0  0
   91.7903  112.4552   90.5690 C   0  0  0  0  0  0  0  0  0  0  0  0
   91.9689  112.2078   89.1970 C   0  0  0  0  0  0  0  0  0  0  0  0
   93.5176  111.6108   88.7181 Cl  0  0  0  0  0  0  0  0  0  0  0  0
   90.4821  113.1974   92.4446 N   0  0  0  0  0  0  0  0  0  0  0  0
   89.2932  113.7866   93.0114 C   0  0  0  0  0  0  0  0  0  0  0  0
   88.1074  113.2258   92.4081 N   0  0  0  0  0  0  0  0  0  0  0  0
   87.9874  113.6686   90.7916 S   0  0  0  0  0  0  0  0  0  0  0  0
   86.9609  112.8344   90.2094 O   0  0  0  0  0  0  0  0  0  0  0  0
   87.9190  115.1112   90.7374 O   0  0  0  0  0  0  0  0  0  0  0  0
   90.9058  112.4840   93.0319 H   0  0  0  0  0  0  0  0  0  0  0  0
   87.2490  113.4903   92.8876 H   0  0  0  0  0  0  0  0  0  0  0  0
   91.3160  110.5037   86.4768 N   0  0  0  0  0  0  0  0  0  0  0  0
   91.0735  112.1606   86.5788 S   0  0  0  0  0  0  0  0  0  0  0  0
   89.7899  112.3824   85.9520 O   0  0  0  0  0  0  0  0  0  0  0  0
   92.2720  112.8033   86.0988 O   0  0  0  0  0  0  0  0  0  0  0  0
   92.2477  110.3115   86.1050 H   0  0  0  0  0  0  0  0  0  0  0  0
   90.5611  110.0753   85.9392 H   0  0  0  0  0  0  0  0  0  0  0  0
 16 17  1  0  0  0
 17 18  2  0  0  0
 17 19  2  0  0  0
 17  1  1  0  0  0
  1  2  2  0  0  0
  2  3  1  0  0  0
  3  4  2  0  0  0
  4  5  1  0  0  0
  5  6  2  0  0  0
  6  7  1  0  0  0
  4  8  1  0  0  0
  8  9  1  0  0  0
  9 10  1  0  0  0
 10 11  1  0  0  0
 11 12  2  0  0  0
 11 13  2  0  0  0
  6  1  1  0  0  0
 11  3  1  0  0  0
 16 20  1  0  0  0
 16 21  1  0  0  0
  8 14  1  0  0  0
 10 15  1  0  0  0
M  END
> <minimizedAffinity>
-5.21190

$$$$
decoy_haloperidol


 27 29  0  0  0  0  0  0  0  0999 V2000
   92.4428  110.8809   88.1596 N   0  0  0  0  0  0  0  0  0  0  0  0
   92.6290  112.3283   88.1457 C   0  0  0  0  0  0  0  0  0  0  0  0
   91.4182  113.0265   87.5123 C   0  0  0  0  0  0  0  0  0  0  0  0
   90.9800  112.4039   86.1664 C   0  0  0  0  0  0  0  0  0  0  0  0
   89.7394  111.7014   86.3755 O   0  0  0  0  0  0  0  0  0  0  0  0
   92.0038  111.3553   85.7098 C   0  0  0  0  0  0  0  0  0  0  0  0
   92.2985  110.3228   86.8055 C   0  0  0  0  0  0  0  0  0  0  0  0
   89.3045  111.6140   85.5102 H   0  0  0  0  0  0  0  0  0  0  0  0
   90.6715  113.5020   85.1402 C   0  0  0  0  0  0  0  0  0  0  0  0
   91.6144  114.5326   84.9397 C   0  0  0  0  0  0  0  0  0  0  0  0
   91.3862  115.5594   84.0202 C   0  0  0  0  0  0  0  0  0  0  0  0
   90.2072  115.5731   83.2841 C   0  0  0  0  0  0  0  0  0  0  0  0
   89.9186  116.8335   82.1501 Cl  0  0  0  0  0  0  0  0  0  0  0  0
   89.2584  114.5708   83.4629 C   0  0  0  0  0  0  0  0  0  0  0  0
   89.4884  113.5428   84.3851 C   0  0  0  0  0  0  0  0  0  0  0  0
   93.4668  110.1528   88.9222 C   0  0  0  0  0  0  0  0  0  0  0  0
   94.3876  109.3194   88.0175 C   0  0  0  0  0  0  0  0  0  0  0  0
   94.3490  107.8327   88.3653 C   0  0  0  0  0  0  0  0  0  0  0  0
   96.5417  107.2710   87.6035 O   0  0  0  0  0  0  0  0  0  0  0  0
   95.3362  107.0300   87.5417 C   0  0  0  0  0  0  0  0  0  0  0  0
   94.8546  105.9250   86.6556 C   0  0  0  0  0  0  0  0  0  0  0  0
   93.5863  105.9286   86.0580 C   0  0  0  0  0  0  0  0  0  0  0  0
   93.1924  104.8632   85.2419 C   0  0  0  0  0  0  0  0  0  0  0  0
   94.0610  103.7995   85.0268 C   0  0  0  0  0  0  0  0  0  0  0  0
   93.6774  102.7826   84.2448 F   0  0  0  0  0  0  0  0  0  0  0  0
   95.3193  103.7764   85.6135 C   0  0  0  0  0  0  0  0  0  0  0  0
   95.7161  104.8382   86.4294 C   0  0  0  0  0  0  0  0  0  0  0  0
 19 20  2  0  0  0
 20 18  1  0  0  0
 18 17  1  0  0  0
 17 16  1  0  0  0
 16  1  1  0  0  0
  1  2  1  0  0  0
  2  3  1  0  0  0
  3  4  1  0  0  0
  4  5  1  0  0  0
  4  9  1  0  0  0
  9 10  2  0  0  0
 10 11  1  0  0  0
 11 12  2  0  0  0
 12 13  1  0  0  0
 12 14  1  0  0  0
 14 15  2  0  0  0
  4  6  1  0  0  0
  6  7  1  0  0  0
 20 21  1  0  0  0
 21 22  2  0  0  0
 22 23  1  0  0  0
 23 24  2  0  0  0
 24 25  1  0  0  0
 24 26  1  0  0  0
 26 27  2  0  0  0
  7  1  1  0  0  0
 27 21  1  0  0  0
 15  9  1  0  0  0
  5  8  1  0  0  0
M  END
> <minimizedAffinity>
-7.49734

$$$$
decoy_furosemide


 25 26  0  0  0  0  0  0  0  0999 V2000
   95.6831  103.6920   84.8961 C   0  0  0  0  0  0  0  0  0  0  0  0
   96.8313  103.1856   84.2734 C   0  0  0  0  0  0  0  0  0  0  0  0
   96.7329  102.3599   83.1373 C   0  0  0  0  0  0  0  0  0  0  0  0
   95.4636  102.0195   82.6132 C   0  0  0  0  0  0  0  0  0  0  0  0
   94.3322  102.5797   83.2356 C   0  0  0  0  0  0  0  0  0  0  0  0
   94.4295  103.3945   84.3734 C   0  0  0  0  0  0  0  0  0  0  0  0
   92.9445  103.9473   85.0576 Cl  0  0  0  0  0  0  0  0  0  0  0  0
   97.4519  105.3265   86.1565 N   0  0  0  0  0  0  0  0  0  0  0  0
   95.8872  104.7356   86.3099 S   0  0  0  0  0  0  0  0  0  0  0  0
   95.0497  105.9008   86.1305 O   0  0  0  0  0  0  0  0  0  0  0  0
   95.8098  103.9149   87.4928 O   0  0  0  0  0  0  0  0  0  0  0  0
   98.0540  104.7949   85.5314 H   0  0  0  0  0  0  0  0  0  0  0  0
   97.4269  106.3269   85.9553 H   0  0  0  0  0  0  0  0  0  0  0  0
   98.0316  101.8873   82.5762 C   0  0  0  0  0  0  0  0  0  0  0  0
   98.4073  100.7288   82.5538 O   0  0  0  0  0  0  0  0  0  0  0  0
   98.7856  102.8578   82.0269 O   0  0  0  0  0  0  0  0  0  0  0  0
   99.5724  102.3737   81.6940 H   0  0  0  0  0  0  0  0  0  0  0  0
   95.3267  101.2665   81.4313 N   0  0  0  0  0  0  0  0  0  0  0  0
   96.1607  100.6754   81.3102 H   0  0  0  0  0  0  0  0  0  0  0  0
   94.1303  100.4404   81.2329 C   0  0  0  0  0  0  0  0  0  0  0  0
   93.1543  100.9591   80.2319 C   0  0  0  0  0  0  0  0  0  0  0  0
   92.0378  100.4201   79.6260 C   0  0  0  0  0  0  0  0  0  0  0  0
   91.5380  101.4165   78.7530 C   0  0  0  0  0  0  0  0  0  0  0  0
   92.3791  102.4965   78.8811 C   0  0  0  0  0  0  0  0  0  0  0  0
   93.3634  102.2294   79.7771 O   0  0  0  0  0  0  0  0  0  0  0  0
  8  9  1  0  0  0
  9 10  2  0  0  0
  9 11  2  0  0  0
  9  1  1  0  0  0
  1  2  2  0  0  0
  2  3  1  0  0  0
  3 14  1  0  0  0
 14 15  2  0  0  0
 14 16  1  0  0  0
  3  4  2  0  0  0
  4 18  1  0  0  0
 18 20  1  0  0  0
 20 21  1  0  0  0
 21 22  2  0  0  0
 22 23  1  0  0  0
 23 24  2  0  0  0
 24 25  1  0  0  0
  4  5  1  0  0  0
  5  6  2  0  0  0
  6  7  1  0  0  0
  6  1  1  0  0  0
 25 21  1  0  0  0
  8 12  1  0  0  0
  8 13  1  0  0  0
 16 17  1  0  0  0
 18 19  1  0  0  0
M  END
> <minimizedAffinity>
-7.62616

$$$$
decoy_fluoxetine


 23 24  0  0  0  0  0  0  0  0999 V2000
   90.6995  112.1282   86.4976 C   0  0  0  0  0  0  0  0  0  0  0  0
   89.4482  111.9307   87.3383 C   0  0  0  0  0  0  0  0  0  0  0  0
   89.3756  112.4069   88.6566 C   0  0  0  0  0  0  0  0  0  0  0  0
   88.2165  112.2313   89.4137 C   0  0  0  0  0  0  0  0  0  0  0  0
   87.1146  111.5817   88.8623 C   0  0  0  0  0  0  0  0  0  0  0  0
   87.1699  111.1066   87.5538 C   0  0  0  0  0  0  0  0  0  0  0  0
   88.3287  111.2800   86.7951 C   0  0  0  0  0  0  0  0  0  0  0  0
   90.7325  113.5275   85.8491 C   0  0  0  0  0  0  0  0  0  0  0  0
   90.7071  113.4798   84.3191 C   0  0  0  0  0  0  0  0  0  0  0  0
   88.5151  114.3411   83.7152 C   0  0  0  0  0  0  0  0  0  0  0  0
   89.3831  113.1729   83.7706 N   0  0  0  0  0  0  0  0  0  0  0  0
   89.4753  112.7736   82.8369 H   0  0  0  0  0  0  0  0  0  0  0  0
   91.8821  112.0469   87.3157 O   0  0  0  0  0  0  0  0  0  0  0  0
   92.5538  110.8601   87.3958 C   0  0  0  0  0  0  0  0  0  0  0  0
   93.3459  110.4300   88.4583 C   0  0  0  0  0  0  0  0  0  0  0  0
   93.9900  109.1882   88.3999 C   0  0  0  0  0  0  0  0  0  0  0  0
   93.8613  108.3638   87.2724 C   0  0  0  0  0  0  0  0  0  0  0  0
   93.0653  108.8038   86.2069 C   0  0  0  0  0  0  0  0  0  0  0  0
   92.4255  110.0443   86.2690 C   0  0  0  0  0  0  0  0  0  0  0  0
   94.5392  107.0170   87.2224 C   0  0  0  0  0  0  0  0  0  0  0  0
   94.2525  106.2533   88.3127 F   0  0  0  0  0  0  0  0  0  0  0  0
   95.8983  107.1033   87.1741 F   0  0  0  0  0  0  0  0  0  0  0  0
   94.1768  106.2736   86.1396 F   0  0  0  0  0  0  0  0  0  0  0  0
 10 11  1  0  0  0
 11  9  1  0  0  0
  9  8  1  0  0  0
  8  1  1  0  0  0
  1 13  1  0  0  0
 13 14  1  0  0  0
 14 15  2  0  0  0
 15 16  1  0  0  0
 16 17  2  0  0  0
 17 20  1  0  0  0
 20 21  1  0  0  0
 20 22  1  0  0  0
 20 23  1  0  0  0
 17 18  1  0  0  0
 18 19  2  0  0  0
  1  2  1  0  0  0
  2  3  2  0  0  0
  3  4  1  0  0  0
  4  5  2  0  0  0
  5  6  1  0  0  0
  6  7  2  0  0  0
 19 14  1  0  0  0
  7  2  1  0  0  0
 11 12  1  0  0  0
M  END
> <minimizedAffinity>
-6.20330

$$$$
decoy_fluconazole


 23 25  0  0  0  0  0  0  0  0999 V2000
   90.9905  110.9601   87.4824 O   0  0  0  0  0  0  0  0  0  0  0  0
   92.3981  111.2550   87.6516 C   0  0  0  0  0  0  0  0  0  0  0  0
   90.8666  110.7022   86.5398 H   0  0  0  0  0  0  0  0  0  0  0  0
   93.1763  109.9346   87.6008 C   0  0  0  0  0  0  0  0  0  0  0  0
   93.9771  109.4844   88.6672 C   0  0  0  0  0  0  0  0  0  0  0  0
   94.6642  108.2681   88.5857 C   0  0  0  0  0  0  0  0  0  0  0  0
   94.5472  107.4811   87.4478 C   0  0  0  0  0  0  0  0  0  0  0  0
   95.2044  106.3168   87.3794 F   0  0  0  0  0  0  0  0  0  0  0  0
   93.7442  107.8772   86.3932 C   0  0  0  0  0  0  0  0  0  0  0  0
   93.0639  109.0875   86.4809 C   0  0  0  0  0  0  0  0  0  0  0  0
   92.2484  109.4151   85.4688 F   0  0  0  0  0  0  0  0  0  0  0  0
   92.7672  112.3238   86.5805 C   0  0  0  0  0  0  0  0  0  0  0  0
   91.7078  112.6344   85.6363 N   0  0  0  0  0  0  0  0  0  0  0  0
   91.6498  112.3019   84.3188 C   0  0  0  0  0  0  0  0  0  0  0  0
   90.5318  112.7557   83.8022 N   0  0  0  0  0  0  0  0  0  0  0  0
   89.9366  113.3864   84.8566 C   0  0  0  0  0  0  0  0  0  0  0  0
   90.6210  113.3438   86.0045 N   0  0  0  0  0  0  0  0  0  0  0  0
   92.5005  111.8761   89.0680 C   0  0  0  0  0  0  0  0  0  0  0  0
   91.4260  112.7732   89.4172 N   0  0  0  0  0  0  0  0  0  0  0  0
   91.4375  114.1325   89.4103 C   0  0  0  0  0  0  0  0  0  0  0  0
   90.2675  114.5798   89.8030 N   0  0  0  0  0  0  0  0  0  0  0  0
   89.5685  113.4360   90.0586 C   0  0  0  0  0  0  0  0  0  0  0  0
   90.2330  112.2999   89.8244 N   0  0  0  0  0  0  0  0  0  0  0  0
  1  2  1  0  0  0
  2 12  1  0  0  0
 12 13  1  0  0  0
 13 14  1  0  0  0
 14 15  2  0  0  0
 15 16  1  0  0  0
 16 17  2  0  0  0
  2 18  1  0  0  0
 18 19  1  0  0  0
 19 20  1  0  0  0
 20 21  2  0  0  0
 21 22  1  0  0  0
 22 23  2  0  0  0
  2  4  1  0  0  0
  4  5  2  0  0  0
  5  6  1  0  0  0
  6  7  2  0  0  0
  7  8  1  0  0  0
  7  9  1  0  0  0
  9 10  2  0  0  0
 10 11  1  0  0  0
 17 13  1  0  0  0
 23 19  1  0  0  0
 10  4  1  0  0  0
  1  3  1  0  0  0
M  END
> <minimizedAffinity>
-5.39277

$$$$
decoy_diphenhydramine


 19 20  0  0  0  0  0  0  0  0999 V2000
   89.4406  113.4391   84.1456 C   0  0  0  0  0  0  0  0  0  0  0  0
   90.9441  113.2671   84.3087 C   0  0  0  0  0  0  0  0  0  0  0  0
   91.5638  112.0591   83.9401 C   0  0  0  0  0  0  0  0  0  0  0  0
   92.9409  111.8843   84.1021 C   0  0  0  0  0  0  0  0  0  0  0  0
   93.7163  112.9111   84.6370 C   0  0  0  0  0  0  0  0  0  0  0  0
   93.1167  114.1134   85.0113 C   0  0  0  0  0  0  0  0  0  0  0  0
   91.7403  114.2900   84.8496 C   0  0  0  0  0  0  0  0  0  0  0  0
   88.6471  112.5580   85.1019 C   0  0  0  0  0  0  0  0  0  0  0  0
   87.4352  111.9810   84.6825 C   0  0  0  0  0  0  0  0  0  0  0  0
   86.7004  111.1608   85.5411 C   0  0  0  0  0  0  0  0  0  0  0  0
   87.1690  110.9002   86.8270 C   0  0  0  0  0  0  0  0  0  0  0  0
   88.3727  111.4579   87.2557 C   0  0  0  0  0  0  0  0  0  0  0  0
   89.1077  112.2794   86.3990 C   0  0  0  0  0  0  0  0  0  0  0  0
   89.1159  114.8261   84.3406 O   0  0  0  0  0  0  0  0  0  0  0  0
   88.8957  115.5413   83.1218 C   0  0  0  0  0  0  0  0  0  0  0  0
   87.4315  115.4060   82.6581 C   0  0  0  0  0  0  0  0  0  0  0  0
   85.2062  114.7066   83.3779 C   0  0  0  0  0  0  0  0  0  0  0  0
   86.3785  115.5235   83.6823 N   0  0  0  0  0  0  0  0  0  0  0  0
   85.9973  116.9099   83.9417 C   0  0  0  0  0  0  0  0  0  0  0  0
 17 18  1  0  0  0
 18 19  1  0  0  0
 18 16  1  0  0  0
 16 15  1  0  0  0
 15 14  1  0  0  0
 14  1  1  0  0  0
  1  2  1  0  0  0
  2  3  2  0  0  0
  3  4  1  0  0  0
  4  5  2  0  0  0
  5  6  1  0  0  0
  6  7  2  0  0  0
  1  8  1  0  0  0
  8  9  2  0  0  0
  9 10  1  0  0  0
 10 11  2  0  0  0
 11 12  1  0  0  0
 12 13  2  0  0  0
  7  2  1  0  0  0
 13  8  1  0  0  0
M  END
> <minimizedAffinity>
-5.21065

$$$$
decoy_diazepam


 20 22  0  0  0  0  0  0  0  0999 V2000
   92.0625  113.5070   90.8082 C   0  0  0  0  0  0  0  0  0  0  0  0
   91.8366  113.5528   89.3696 N   0  0  0  0  0  0  0  0  0  0  0  0
   91.5568  114.8106   88.8203 C   0  0  0  0  0  0  0  0  0  0  0  0
   91.4221  115.8196   89.5191 O   0  0  0  0  0  0  0  0  0  0  0  0
   91.5093  114.9127   87.3020 C   0  0  0  0  0  0  0  0  0  0  0  0
   90.3146  114.2347   86.8102 N   0  0  0  0  0  0  0  0  0  0  0  0
   90.2771  112.9470   86.8822 C   0  0  0  0  0  0  0  0  0  0  0  0
   91.4058  112.1056   87.3778 C   0  0  0  0  0  0  0  0  0  0  0  0
   91.7422  110.9741   86.6109 C   0  0  0  0  0  0  0  0  0  0  0  0
   92.7040  110.0814   87.0680 C   0  0  0  0  0  0  0  0  0  0  0  0
   93.0988  108.6931   86.1348 Cl  0  0  0  0  0  0  0  0  0  0  0  0
   93.3383  110.3021   88.2829 C   0  0  0  0  0  0  0  0  0  0  0  0
   93.0249  111.4393   89.0348 C   0  0  0  0  0  0  0  0  0  0  0  0
   92.0755  112.3790   88.5877 C   0  0  0  0  0  0  0  0  0  0  0  0
   89.0184  112.2714   86.4299 C   0  0  0  0  0  0  0  0  0  0  0  0
   88.5454  112.5133   85.1345 C   0  0  0  0  0  0  0  0  0  0  0  0
   87.3753  111.8964   84.6891 C   0  0  0  0  0  0  0  0  0  0  0  0
   86.6689  111.0454   85.5384 C   0  0  0  0  0  0  0  0  0  0  0  0
   87.1251  110.8162   86.8365 C   0  0  0  0  0  0  0  0  0  0  0  0
   88.2952  111.4314   87.2867 C   0  0  0  0  0  0  0  0  0  0  0  0
  1  2  1  0  0  0
  2  3  1  0  0  0
  3  4  2  0  0  0
  3  5  1  0  0  0
  5  6  1  0  0  0
  6  7  2  0  0  0
  7 15  1  0  0  0
 15 16  2  0  0  0
 16 17  1  0  0  0
 17 18  2  0  0  0
 18 19  1  0  0  0
 19 20  2  0  0  0
  7  8  1  0  0  0
  8  9  2  0  0  0
  9 10  1  0  0  0
 10 11  1  0  0  0
 10 12  2  0  0  0
 12 13  1  0  0  0
 13 14  2  0  0  0
 14  2  1  0  0  0
 20 15  1  0  0  0
 14  8  1  0  0  0
M  END
> <minimizedAffinity>
-5.91559

$$$$
decoy_ciprofloxacin


 26 29  0  0  0  0  0  0  0  0999 V2000
   87.8678  112.3317   84.9813 C   0  0  0  0  0  0  0  0  0  0  0  0
   88.5564  113.2936   84.3478 C   0  0  0  0  0  0  0  0  0  0  0  0
   89.6904  113.9289   84.8210 N   0  0  0  0  0  0  0  0  0  0  0  0
   90.3032  113.4518   86.0143 C   0  0  0  0  0  0  0  0  0  0  0  0
   91.5425  113.9294   86.4782 C   0  0  0  0  0  0  0  0  0  0  0  0
   92.1465  113.4653   87.6677 C   0  0  0  0  0  0  0  0  0  0  0  0
   91.4330  112.5005   88.4024 C   0  0  0  0  0  0  0  0  0  0  0  0
   91.9205  112.0017   89.5489 F   0  0  0  0  0  0  0  0  0  0  0  0
   90.2088  112.0000   87.9693 C   0  0  0  0  0  0  0  0  0  0  0  0
   89.6526  112.4675   86.7775 C   0  0  0  0  0  0  0  0  0  0  0  0
   88.3504  111.9176   86.3197 C   0  0  0  0  0  0  0  0  0  0  0  0
   87.7149  111.1687   87.0534 O   0  0  0  0  0  0  0  0  0  0  0  0
   93.3837  114.0228   88.0494 N   0  0  0  0  0  0  0  0  0  0  0  0
   94.5800  113.1505   87.9927 C   0  0  0  0  0  0  0  0  0  0  0  0
   95.7814  113.8484   88.6715 C   0  0  0  0  0  0  0  0  0  0  0  0
   96.0934  115.1682   88.0886 N   0  0  0  0  0  0  0  0  0  0  0  0
   94.8828  116.0092   88.1174 C   0  0  0  0  0  0  0  0  0  0  0  0
   93.6525  115.3528   87.4463 C   0  0  0  0  0  0  0  0  0  0  0  0
   96.8225  115.6123   88.6453 H   0  0  0  0  0  0  0  0  0  0  0  0
   85.9209  112.3973   83.5907 O   0  0  0  0  0  0  0  0  0  0  0  0
   86.6949  111.7738   84.2992 C   0  0  0  0  0  0  0  0  0  0  0  0
   86.5645  110.4490   84.4585 O   0  0  0  0  0  0  0  0  0  0  0  0
   85.7465  110.2133   83.9761 H   0  0  0  0  0  0  0  0  0  0  0  0
   90.3473  114.9229   83.9511 C   0  0  0  0  0  0  0  0  0  0  0  0
   89.5622  115.8611   83.0650 C   0  0  0  0  0  0  0  0  0  0  0  0
   90.2887  116.3999   84.2561 C   0  0  0  0  0  0  0  0  0  0  0  0
 20 21  2  0  0  0
 21 22  1  0  0  0
 21  1  1  0  0  0
  1  2  2  0  0  0
  2  3  1  0  0  0
  3 24  1  0  0  0
 24 25  1  0  0  0
 25 26  1  0  0  0
  3  4  1  0  0  0
  4  5  2  0  0  0
  5  6  1  0  0  0
  6 13  1  0  0  0
 13 14  1  0  0  0
 14 15  1  0  0  0
 15 16  1  0  0  0
 16 17  1  0  0  0
 17 18  1  0  0  0
  6  7  2  0  0  0
  7  8  1  0  0  0
  7  9  1  0  0  0
  9 10  2  0  0  0
 10 11  1  0  0  0
 11 12  2  0  0  0
 11  1  1  0  0  0
 26 24  1  0  0  0
 10  4  1  0  0  0
 18 13  1  0  0  0
 22 23  1  0  0  0
 16 19  1  0  0  0
M  END
> <minimizedAffinity>
-6.02998

$$$$
decoy_chlorpromazine


 21 23  0  0  0  0  0  0  0  0999 V2000
  102.6676   96.5937   84.2999 N   0  0  0  0  0  0  0  0  0  0  0  0
  103.3272   96.7250   83.0422 C   0  0  0  0  0  0  0  0  0  0  0  0
  102.9386   97.6877   82.0824 C   0  0  0  0  0  0  0  0  0  0  0  0
  103.5708   97.8166   80.8392 C   0  0  0  0  0  0  0  0  0  0  0  0
  104.6208   96.9788   80.5072 C   0  0  0  0  0  0  0  0  0  0  0  0
  105.0303   96.0160   81.4215 C   0  0  0  0  0  0  0  0  0  0  0  0
  104.3952   95.8821   82.6731 C   0  0  0  0  0  0  0  0  0  0  0  0
  105.0639   94.6206   83.7300 S   0  0  0  0  0  0  0  0  0  0  0  0
  103.8863   94.5740   85.0582 C   0  0  0  0  0  0  0  0  0  0  0  0
  104.0593   93.5170   85.9755 C   0  0  0  0  0  0  0  0  0  0  0  0
  103.2169   93.3733   87.0718 C   0  0  0  0  0  0  0  0  0  0  0  0
  102.1962   94.2898   87.2521 C   0  0  0  0  0  0  0  0  0  0  0  0
  101.1323   94.1284   88.5962 Cl  0  0  0  0  0  0  0  0  0  0  0  0
  102.0184   95.3433   86.3492 C   0  0  0  0  0  0  0  0  0  0  0  0
  102.8585   95.5260   85.2265 C   0  0  0  0  0  0  0  0  0  0  0  0
  101.7801   97.7088   84.7190 C   0  0  0  0  0  0  0  0  0  0  0  0
  102.5508   98.7661   85.5250 C   0  0  0  0  0  0  0  0  0  0  0  0
  102.5949  100.1215   84.8090 C   0  0  0  0  0  0  0  0  0  0  0  0
  104.3685  101.6189   85.4478 C   0  0  0  0  0  0  0  0  0  0  0  0
  103.9566  100.5827   84.4945 N   0  0  0  0  0  0  0  0  0  0  0  0
  104.0487  101.1142   83.1313 C   0  0  0  0  0  0  0  0  0  0  0  0
 19 20  1  0  0  0
 20 21  1  0  0  0
 20 18  1  0  0  0
 18 17  1  0  0  0
 17 16  1  0  0  0
 16  1  1  0  0  0
  1  2  1  0  0  0
  2  3  2  0  0  0
  3  4  1  0  0  0
  4  5  2  0  0  0
  5  6  1  0  0  0
  6  7  2  0  0  0
  7  8  1  0  0  0
  8  9  1  0  0  0
  9 10  2  0  0  0
 10 11  1  0  0  0
 11 12  2  0  0  0
 12 13  1  0  0  0
 12 14  1  0  0  0
 14 15  2  0  0  0
 15  1  1  0  0  0
  7  2  1  0  0  0
 15  9  1  0  0  0
M  END
> <minimizedAffinity>
-5.13391

$$$$
decoy_celecoxib


 28 30  0  0  0  0  0  0  0  0999 V2000
   92.5671  113.3379   87.8999 C   0  0  0  0  0  0  0  0  0  0  0  0
   91.6822  114.1530   88.5816 C   0  0  0  0  0  0  0  0  0  0  0  0
   90.7016  113.3021   89.1320 C   0  0  0  0  0  0  0  0  0  0  0  0
   90.9590  112.0222   88.8196 N   0  0  0  0  0  0  0  0  0  0  0  0
   92.1450  112.0295   88.1433 N   0  0  0  0  0  0  0  0  0  0  0  0
   96.9155  114.9848   84.4778 C   0  0  0  0  0  0  0  0  0  0  0  0
   95.7802  114.5850   85.3736 C   0  0  0  0  0  0  0  0  0  0  0  0
   96.0036  114.3370   86.7328 C   0  0  0  0  0  0  0  0  0  0  0  0
   94.9533  113.9337   87.5611 C   0  0  0  0  0  0  0  0  0  0  0  0
   93.6635  113.7736   87.0410 C   0  0  0  0  0  0  0  0  0  0  0  0
   93.4458  113.9901   85.6759 C   0  0  0  0  0  0  0  0  0  0  0  0
   94.4970  114.3937   84.8486 C   0  0  0  0  0  0  0  0  0  0  0  0
   92.7512  110.7725   87.8177 C   0  0  0  0  0  0  0  0  0  0  0  0
   92.4006  110.1452   86.6060 C   0  0  0  0  0  0  0  0  0  0  0  0
   92.9627  108.9173   86.2446 C   0  0  0  0  0  0  0  0  0  0  0  0
   93.8811  108.3052   87.0967 C   0  0  0  0  0  0  0  0  0  0  0  0
   94.2165  108.8958   88.3161 C   0  0  0  0  0  0  0  0  0  0  0  0
   93.6509  110.1253   88.6756 C   0  0  0  0  0  0  0  0  0  0  0  0
   94.5704  106.7368   86.6596 S   0  0  0  0  0  0  0  0  0  0  0  0
   94.6851  105.9805   88.1541 N   0  0  0  0  0  0  0  0  0  0  0  0
   93.5961  105.9802   85.9082 O   0  0  0  0  0  0  0  0  0  0  0  0
   95.9273  106.9233   86.2023 O   0  0  0  0  0  0  0  0  0  0  0  0
   94.0916  105.1508   88.1671 H   0  0  0  0  0  0  0  0  0  0  0  0
   95.6641  105.7897   88.3693 H   0  0  0  0  0  0  0  0  0  0  0  0
   89.4961  113.7188   89.9310 C   0  0  0  0  0  0  0  0  0  0  0  0
   88.3961  112.9733   89.6455 F   0  0  0  0  0  0  0  0  0  0  0  0
   89.1622  115.0201   89.7235 F   0  0  0  0  0  0  0  0  0  0  0  0
   89.7101  113.5875   91.2704 F   0  0  0  0  0  0  0  0  0  0  0  0
  6  7  1  0  0  0
  7  8  2  0  0  0
  8  9  1  0  0  0
  9 10  2  0  0  0
 10  1  1  0  0  0
  1  2  2  0  0  0
  2  3  1  0  0  0
  3 25  1  0  0  0
 25 26  1  0  0  0
 25 27  1  0  0  0
 25 28  1  0  0  0
  3  4  2  0  0  0
  4  5  1  0  0  0
  5 13  1  0  0  0
 13 14  2  0  0  0
 14 15  1  0  0  0
 15 16  2  0  0  0
 16 19  1  0  0  0
 19 20  1  0  0  0
 19 21  2  0  0  0
 19 22  2  0  0  0
 16 17  1  0  0  0
 17 18  2  0  0  0
 10 11  1  0  0  0
 11 12  2  0  0  0
 12  7  1  0  0  0
  5  1  1  0  0  0
 18 13  1  0  0  0
 20 23  1  0  0  0
 20 24  1  0  0  0
M  END
> <minimizedAffinity>
-6.37230

$$$$
decoy_captopril


 16 16  0  0  0  0  0  0  0  0999 V2000
   95.6303  106.2038   87.0398 C   0  0  0  0  0  0  0  0  0  0  0  0
   96.7221  106.4688   87.5472 O   0  0  0  0  0  0  0  0  0  0  0  0
   95.5178  105.2093   86.0912 N   0  0  0  0  0  0  0  0  0  0  0  0
   94.3063  104.5781   85.5966 C   0  0  0  0  0  0  0  0  0  0  0  0
   94.7363  103.1493   85.3092 C   0  0  0  0  0  0  0  0  0  0  0  0
   96.1681  103.3146   84.8205 C   0  0  0  0  0  0  0  0  0  0  0  0
   96.7153  104.4755   85.6591 C   0  0  0  0  0  0  0  0  0  0  0  0
   97.6907  105.2886   84.8041 C   0  0  0  0  0  0  0  0  0  0  0  0
   98.2701  104.8749   83.8094 O   0  0  0  0  0  0  0  0  0  0  0  0
   97.8245  106.5816   85.1674 O   0  0  0  0  0  0  0  0  0  0  0  0
   98.4960  106.9325   84.5471 H   0  0  0  0  0  0  0  0  0  0  0  0
   93.9037  107.8012   86.1985 C   0  0  0  0  0  0  0  0  0  0  0  0
   94.3709  106.9898   87.4102 C   0  0  0  0  0  0  0  0  0  0  0  0
   94.6806  107.8921   88.6164 C   0  0  0  0  0  0  0  0  0  0  0  0
   93.9129  109.5419   88.4830 S   0  0  0  0  0  0  0  0  0  0  0  0
   92.6402  109.1291   88.5721 H   0  0  0  0  0  0  0  0  0  0  0  0
 12 13  1  0  0  0
 13 14  1  0  0  0
 14 15  1  0  0  0
 13  1  1  0  0  0
  1  2  2  0  0  0
  1  3  1  0  0  0
  3  4  1  0  0  0
  4  5  1  0  0  0
  5  6  1  0  0  0
  6  7  1  0  0  0
  7  8  1  0  0  0
  8  9  2  0  0  0
  8 10  1  0  0  0
  7  3  1  0  0  0
 15 16  1  0  0  0
 10 11  1  0  0  0
M  END
> <minimizedAffinity>
-5.51894

$$$$
decoy_caffeine


 14 15  0  0  0  0  0  0  0  0999 V2000
   90.3407  117.1001   82.0868 C   0  0  0  0  0  0  0  0  0  0  0  0
   89.0924  116.4073   82.2812 N   0  0  0  0  0  0  0  0  0  0  0  0
   87.8822  116.7532   81.7405 C   0  0  0  0  0  0  0  0  0  0  0  0
   86.9294  115.9192   82.1076 N   0  0  0  0  0  0  0  0  0  0  0  0
   87.5602  115.0153   82.9079 C   0  0  0  0  0  0  0  0  0  0  0  0
   88.8886  115.2870   83.0347 C   0  0  0  0  0  0  0  0  0  0  0  0
   89.7744  114.4963   83.8155 C   0  0  0  0  0  0  0  0  0  0  0  0
   90.9705  114.7501   83.9231 O   0  0  0  0  0  0  0  0  0  0  0  0
   89.1348  113.4178   84.4335 N   0  0  0  0  0  0  0  0  0  0  0  0
   89.9321  112.5331   85.2603 C   0  0  0  0  0  0  0  0  0  0  0  0
   87.7635  113.1035   84.3270 C   0  0  0  0  0  0  0  0  0  0  0  0
   87.2898  112.1255   84.9131 O   0  0  0  0  0  0  0  0  0  0  0  0
   86.9769  113.9417   83.5361 N   0  0  0  0  0  0  0  0  0  0  0  0
   85.5571  113.6879   83.3743 C   0  0  0  0  0  0  0  0  0  0  0  0
  1  2  1  0  0  0
  2  3  1  0  0  0
  3  4  2  0  0  0
  4  5  1  0  0  0
  5  6  2  0  0  0
  6  7  1  0  0  0
  7  8  2  0  0  0
  7  9  1  0  0  0
  9 10  1  0  0  0
  9 11  1  0  0  0
 11 12  2  0  0  0
 11 13  1  0  0  0
 13 14  1  0  0  0
  6  2  1  0  0  0
 13  5  1  0  0  0
M  END
> <minimizedAffinity>
-4.75825

$$$$
decoy_atenolol


 23 23  0  0  0  0  0  0  0  0999 V2000
   95.4316  103.2582   84.5045 C   0  0  0  0  0  0  0  0  0  0  0  0
   96.3824  102.6106   83.7186 C   0  0  0  0  0  0  0  0  0  0  0  0
   95.9879  101.8980   82.5810 C   0  0  0  0  0  0  0  0  0  0  0  0
   94.6369  101.8200   82.2178 C   0  0  0  0  0  0  0  0  0  0  0  0
   93.6851  102.4709   83.0124 C   0  0  0  0  0  0  0  0  0  0  0  0
   94.0840  103.1808   84.1465 C   0  0  0  0  0  0  0  0  0  0  0  0
   95.6814  103.9870   85.6345 O   0  0  0  0  0  0  0  0  0  0  0  0
   97.0567  104.2405   85.9527 C   0  0  0  0  0  0  0  0  0  0  0  0
   97.0965  104.8802   87.3464 C   0  0  0  0  0  0  0  0  0  0  0  0
   98.2920  104.4795   88.0308 O   0  0  0  0  0  0  0  0  0  0  0  0
   98.3848  103.5223   87.8750 H   0  0  0  0  0  0  0  0  0  0  0  0
   96.9937  106.4210   87.3157 C   0  0  0  0  0  0  0  0  0  0  0  0
   96.1192  106.9451   86.2559 N   0  0  0  0  0  0  0  0  0  0  0  0
   95.9517  106.2358   85.5450 H   0  0  0  0  0  0  0  0  0  0  0  0
   94.8498  107.6965   88.2683 C   0  0  0  0  0  0  0  0  0  0  0  0
   94.8374  107.4588   86.7568 C   0  0  0  0  0  0  0  0  0  0  0  0
   93.7524  106.4398   86.4017 C   0  0  0  0  0  0  0  0  0  0  0  0
   94.2185  101.0471   80.9908 C   0  0  0  0  0  0  0  0  0  0  0  0
   93.1107  101.7279   80.2126 C   0  0  0  0  0  0  0  0  0  0  0  0
   92.0316  100.9440   79.9145 N   0  0  0  0  0  0  0  0  0  0  0  0
   93.1437  102.9078   79.8784 O   0  0  0  0  0  0  0  0  0  0  0  0
   92.1510   99.9418   79.8392 H   0  0  0  0  0  0  0  0  0  0  0  0
   91.3501  101.3673   79.2978 H   0  0  0  0  0  0  0  0  0  0  0  0
 15 16  1  0  0  0
 16 17  1  0  0  0
 16 13  1  0  0  0
 13 12  1  0  0  0
 12  9  1  0  0  0
  9 10  1  0  0  0
  9  8  1  0  0  0
  8  7  1  0  0  0
  7  1  1  0  0  0
  1  2  2  0  0  0
  2  3  1  0  0  0
  3  4  2  0  0  0
  4 18  1  0  0  0
 18 19  1  0  0  0
 19 20  1  0  0  0
 19 21  2  0  0  0
  4  5  1  0  0  0
  5  6  2  0  0  0
  6  1  1  0  0  0
 13 14  1  0  0  0
 10 11  1  0  0  0
 20 22  1  0  0  0
 20 23  1  0  0  0
M  END
> <minimizedAffinity>
-6.88667

$$$$
decoy_aspirin


 14 14  0  0  0  0  0  0  0  0999 V2000
   94.9628  102.6312   83.9706 C   0  0  0  0  0  0  0  0  0  0  0  0
   94.0518  103.3101   84.7896 C   0  0  0  0  0  0  0  0  0  0  0  0
   94.4899  104.3593   85.5955 C   0  0  0  0  0  0  0  0  0  0  0  0
   95.8310  104.7368   85.5762 C   0  0  0  0  0  0  0  0  0  0  0  0
   96.7346  104.0699   84.7435 C   0  0  0  0  0  0  0  0  0  0  0  0
   96.3102  103.0131   83.9206 C   0  0  0  0  0  0  0  0  0  0  0  0
   97.3423  102.3912   83.0537 C   0  0  0  0  0  0  0  0  0  0  0  0
   98.2255  102.9970   82.4712 O   0  0  0  0  0  0  0  0  0  0  0  0
   97.2286  101.0605   82.9052 O   0  0  0  0  0  0  0  0  0  0  0  0
   97.9694  100.8394   82.3019 H   0  0  0  0  0  0  0  0  0  0  0  0
   94.4356  101.6066   83.1810 O   0  0  0  0  0  0  0  0  0  0  0  0
   94.1627  100.9987   80.9274 C   0  0  0  0  0  0  0  0  0  0  0  0
   93.9565  102.0662   81.9601 C   0  0  0  0  0  0  0  0  0  0  0  0
   93.4562  103.1598   81.7319 O   0  0  0  0  0  0  0  0  0  0  0  0
 12 13  1  0  0  0
 13 14  2  0  0  0
 13 11  1  0  0  0
 11  1  1  0  0  0
  1  2  2  0  0  0
  2  3  1  0  0  0
  3  4  2  0  0  0
  4  5  1  0  0  0
  5  6  2  0  0  0
  6  7  1  0  0  0
  7  8  2  0  0  0
  7  9  1  0  0  0
  6  1  1  0  0  0
  9 10  1  0  0  0
M  END
> <minimizedAffinity>
-6.46454

$$$$
decoy_amlodipine


 31 32  0  0  0  0  0  0  0  0999 V2000
   90.6042  112.8299   88.2284 C   0  0  0  0  0  0  0  0  0  0  0  0
   89.8140  112.1244   87.3862 C   0  0  0  0  0  0  0  0  0  0  0  0
   90.2087  111.9417   86.0660 N   0  0  0  0  0  0  0  0  0  0  0  0
   91.3011  112.5572   85.4812 C   0  0  0  0  0  0  0  0  0  0  0  0
   91.4072  112.4274   83.9842 C   0  0  0  0  0  0  0  0  0  0  0  0
   92.1595  113.2540   86.2588 C   0  0  0  0  0  0  0  0  0  0  0  0
   91.9446  113.4062   87.7636 C   0  0  0  0  0  0  0  0  0  0  0  0
   89.4748  111.5641   85.4619 H   0  0  0  0  0  0  0  0  0  0  0  0
   93.1084  112.7775   88.5436 C   0  0  0  0  0  0  0  0  0  0  0  0
   93.2936  111.3780   88.4909 C   0  0  0  0  0  0  0  0  0  0  0  0
   94.3340  110.7575   89.1844 C   0  0  0  0  0  0  0  0  0  0  0  0
   95.2148  111.5197   89.9430 C   0  0  0  0  0  0  0  0  0  0  0  0
   95.0554  112.9029   90.0050 C   0  0  0  0  0  0  0  0  0  0  0  0
   94.0134  113.5314   89.3119 C   0  0  0  0  0  0  0  0  0  0  0  0
   93.9128  115.2501   89.4553 Cl  0  0  0  0  0  0  0  0  0  0  0  0
   90.1988  113.0403   89.6374 C   0  0  0  0  0  0  0  0  0  0  0  0
   90.5023  112.2973   90.5584 O   0  0  0  0  0  0  0  0  0  0  0  0
   89.4283  114.1491   89.7320 O   0  0  0  0  0  0  0  0  0  0  0  0
   87.2783  113.7748   90.7792 C   0  0  0  0  0  0  0  0  0  0  0  0
   88.6899  114.3021   90.9524 C   0  0  0  0  0  0  0  0  0  0  0  0
   93.3347  113.9646   85.7196 C   0  0  0  0  0  0  0  0  0  0  0  0
   94.3192  113.3981   85.2729 O   0  0  0  0  0  0  0  0  0  0  0  0
   93.1176  115.3038   85.7424 O   0  0  0  0  0  0  0  0  0  0  0  0
   93.2116  115.9216   84.4592 C   0  0  0  0  0  0  0  0  0  0  0  0
   88.4683  111.5298   87.7712 C   0  0  0  0  0  0  0  0  0  0  0  0
   87.6684  111.3978   86.5820 O   0  0  0  0  0  0  0  0  0  0  0  0
   86.6182  110.4344   86.7276 C   0  0  0  0  0  0  0  0  0  0  0  0
   86.0798  109.9426   85.3751 C   0  0  0  0  0  0  0  0  0  0  0  0
   86.6419  110.6972   84.2507 N   0  0  0  0  0  0  0  0  0  0  0  0
   87.6608  110.6714   84.3381 H   0  0  0  0  0  0  0  0  0  0  0  0
   86.4007  111.6825   84.3568 H   0  0  0  0  0  0  0  0  0  0  0  0
 19 20  1  0  0  0
 20 18  1  0  0  0
 18 16  1  0  0  0
 16 17  2  0  0  0
 16  1  1  0  0  0
  1  2  2  0  0  0
  2 25  1  0  0  0
 25 26  1  0  0  0
 26 27  1  0  0  0
 27 28  1  0  0  0
 28 29  1  0  0  0
  2  3  1  0  0  0
  3  4  1  0  0  0
  4  5  1  0  0  0
  4  6  2  0  0  0
  6 21  1  0  0  0
 21 22  2  0  0  0
 21 23  1  0  0  0
 23 24  1  0  0  0
  6  7  1  0  0  0
  7  9  1  0  0  0
  9 10  2  0  0  0
 10 11  1  0  0  0
 11 12  2  0  0  0
 12 13  1  0  0  0
 13 14  2  0  0  0
 14 15  1  0  0  0
  7  1  1  0  0  0
 14  9  1  0  0  0
 29 30  1  0  0  0
 29 31  1  0  0  0
  3  8  1  0  0  0
M  END
> <minimizedAffinity>
-5.55245

$$$$
decoy_albendazole


 20 21  0  0  0  0  0  0  0  0999 V2000
   94.7918  105.5719   86.6223 C   0  0  0  0  0  0  0  0  0  0  0  0
   96.0303  104.9404   86.8031 C   0  0  0  0  0  0  0  0  0  0  0  0
   96.4447  103.8824   85.9835 C   0  0  0  0  0  0  0  0  0  0  0  0
   95.5558  103.4858   84.9853 C   0  0  0  0  0  0  0  0  0  0  0  0
   95.6179  102.5126   84.0235 N   0  0  0  0  0  0  0  0  0  0  0  0
   94.4526  102.5481   83.3001 C   0  0  0  0  0  0  0  0  0  0  0  0
   93.6469  103.4864   83.7397 N   0  0  0  0  0  0  0  0  0  0  0  0
   94.3142  104.0790   84.7864 C   0  0  0  0  0  0  0  0  0  0  0  0
   93.9153  105.1354   85.6183 C   0  0  0  0  0  0  0  0  0  0  0  0
   96.3758  101.8637   83.8543 H   0  0  0  0  0  0  0  0  0  0  0  0
   94.1710  101.7111   82.2570 N   0  0  0  0  0  0  0  0  0  0  0  0
   93.5736  102.1260   81.1052 C   0  0  0  0  0  0  0  0  0  0  0  0
   93.2144  103.2697   80.8514 O   0  0  0  0  0  0  0  0  0  0  0  0
   94.4251  100.7402   82.3563 H   0  0  0  0  0  0  0  0  0  0  0  0
   93.4329  101.0667   80.2674 O   0  0  0  0  0  0  0  0  0  0  0  0
   93.7626   99.8072   80.8551 C   0  0  0  0  0  0  0  0  0  0  0  0
   94.3437  106.9084   87.7225 S   0  0  0  0  0  0  0  0  0  0  0  0
   93.7527  108.1563   86.5247 C   0  0  0  0  0  0  0  0  0  0  0  0
   92.2885  110.1815   86.2566 C   0  0  0  0  0  0  0  0  0  0  0  0
   93.1309  109.3629   87.2243 C   0  0  0  0  0  0  0  0  0  0  0  0
 19 20  1  0  0  0
 20 18  1  0  0  0
 18 17  1  0  0  0
 17  1  1  0  0  0
  1  2  2  0  0  0
  2  3  1  0  0  0
  3  4  2  0  0  0
  4  5  1  0  0  0
  5  6  1  0  0  0
  6 11  1  0  0  0
 11 12  1  0  0  0
 12 13  2  0  0  0
 12 15  1  0  0  0
 15 16  1  0  0  0
  6  7  2  0  0  0
  7  8  1  0  0  0
  8  9  2  0  0  0
  9  1  1  0  0  0
  8  4  1  0  0  0
  5 10  1  0  0  0
 11 14  1  0  0  0
M  END
> <minimizedAffinity>
-6.82567

$$$$
decoy_acetaminophen


 13 13  0  0  0  0  0  0  0  0999 V2000
   94.4754  102.6507   83.4084 C   0  0  0  0  0  0  0  0  0  0  0  0
   95.8427  102.6736   83.7167 C   0  0  0  0  0  0  0  0  0  0  0  0
   96.3195  103.4398   84.7833 C   0  0  0  0  0  0  0  0  0  0  0  0
   95.4303  104.1854   85.5443 C   0  0  0  0  0  0  0  0  0  0  0  0
   95.9342  104.9193   86.5757 O   0  0  0  0  0  0  0  0  0  0  0  0
   94.0714  104.1769   85.2549 C   0  0  0  0  0  0  0  0  0  0  0  0
   93.5960  103.4086   84.1857 C   0  0  0  0  0  0  0  0  0  0  0  0
   95.1999  105.3819   87.0123 H   0  0  0  0  0  0  0  0  0  0  0  0
   93.1804  101.1194   80.2127 C   0  0  0  0  0  0  0  0  0  0  0  0
   93.4579  102.2681   81.1507 C   0  0  0  0  0  0  0  0  0  0  0  0
   93.1223  103.4100   80.8578 O   0  0  0  0  0  0  0  0  0  0  0  0
   94.0761  101.8529   82.3162 N   0  0  0  0  0  0  0  0  0  0  0  0
   94.2591  100.8616   82.4054 H   0  0  0  0  0  0  0  0  0  0  0  0
  9 10  1  0  0  0
 10 11  2  0  0  0
 10 12  1  0  0  0
 12  1  1  0  0  0
  1  2  2  0  0  0
  2  3  1  0  0  0
  3  4  2  0  0  0
  4  5  1  0  0  0
  4  6  1  0  0  0
  6  7  2  0  0  0
  7  1  1  0  0  0
 12 13  1  0  0  0
  5  8  1  0  0  0
M  END
> <minimizedAffinity>
-5.92263

$$$$
