denovo_401
     RDKit          3D

 22 23  0  0  0  0  0  0  0  0999 V2000
  -16.0505   13.0429  -11.2428 C   0  0  0  0  0  0  0  0  0  0  0  0
  -14.8548   13.5213  -11.8445 O   0  0  0  0  0  0  0  0  0  0  0  0
  -14.5539   12.8187  -13.0525 C   0  0  0  0  0  0  0  0  0  0  0  0
  -13.3323   13.4551  -13.7507 C   0  0  2  0  0  0  0  0  0  0  0  0
  -13.7040   14.8426  -14.2623 C   0  0  0  0  0  0  0  0  0  0  0  0
  -13.5178   15.1570  -15.6170 C   0  0  0  0  0  0  0  0  0  0  0  0
  -13.8489   16.4218  -16.1061 C   0  0  0  0  0  0  0  0  0  0  0  0
  -14.3688   17.3882  -15.2484 C   0  0  0  0  0  0  0  0  0  0  0  0
  -14.5580   17.0912  -13.9008 C   0  0  0  0  0  0  0  0  0  0  0  0
  -14.2274   15.8270  -13.4092 C   0  0  0  0  0  0  0  0  0  0  0  0
  -12.7540   12.5634  -14.8790 C   0  0  2  0  0  0  0  0  0  0  0  0
  -12.4205   11.1297  -14.4537 C   0  0  0  0  0  0  0  0  0  0  0  0
  -11.3126   10.6510  -15.3970 C   0  0  0  0  0  0  0  0  0  0  0  0
  -10.9088   11.8580  -16.2480 C   0  0  2  0  0  0  0  0  0  0  0  0
   -9.4108   11.9908  -16.5723 C   0  0  0  0  0  0  0  0  0  0  0  0
   -8.9184   11.5757  -18.0010 C   0  0  0  0  0  0  0  0  0  0  0  0
   -9.2667   12.6865  -19.0128 C   0  0  0  0  0  0  0  0  0  0  0  0
   -7.3736   11.4818  -17.9162 C   0  0  0  0  0  0  0  0  0  0  0  0
   -9.5116   10.2088  -18.4674 C   0  0  1  0  0  0  0  0  0  0  0  0
   -9.1990    9.0172  -17.5618 C   0  0  0  0  0  0  0  0  0  0  0  0
  -10.9357   10.2744  -18.5614 O   0  0  0  0  0  0  0  0  0  0  0  0
  -11.4084   13.0526  -15.4249 C   0  0  0  0  0  0  0  0  0  0  0  0
  1  2  1  0
  2  3  1  0
  4  3  1  6
  4  5  1  0
  5  6  2  0
  6  7  1  0
  7  8  2  0
  8  9  1  0
  9 10  2  0
  4 11  1  0
 11 12  1  1
 12 13  1  0
 13 14  1  0
 14 15  1  1
 15 16  1  0
 16 17  1  0
 16 18  1  0
 16 19  1  0
 19 20  1  1
 19 21  1  0
 14 22  1  0
 10  5  1  0
 22 11  1  0
M  END
>  <CHROM.0>  (1) 
169.68120900,177.01394582,-58.07654760,64.70011925,69.16695899,-64.00086847
177.14793581,73.74903313,-32.65899809,-167.51574109,-58.31389957,-72.89483466
-35.84931690,-58.70187036

>  <CHROM.1>  (1) 
174.36673910,-68.05356787,-124.89821853,-53.31544811,102.49714020,77.50079501
-58.66148942,176.89889011,-12.08038551,12.91162706,-15.51437898,2.88202455
0.81985827,-0.38605153

>  <Name>  (1) 
denovo_401

>  <RI>  (1) 
1.14584e+09

>  <Rbt.Current_Directory>  (1) 
/tmp/claude-0/-home-user-Rare-cancers/1af35c7f-7dc4-53ce-91d2-1631a2a10a85/scratchpad/smwork/cross/dock_8XTT-model2

>  <Rbt.Executable>  (1) 
rbdock - v25.07-alpha

>  <Rbt.Library>  (1) 
libRbt.so (25.07, Buildalpha)

>  <Rbt.Parameter_File>  (1) 
/tmp/claude-0/-home-user-Rare-cancers/1af35c7f-7dc4-53ce-91d2-1631a2a10a85/scratchpad/rdroot/share/rDock/data/scripts/dock.prm

>  <Rbt.Receptor>  (1) 
rec.prm

>  <SCORE>  (1) 
-18.5194

>  <SCORE.INTER>  (1) 
-15.476

>  <SCORE.INTER.CONST>  (1) 
1

>  <SCORE.INTER.POLAR>  (1) 
-0.61025

>  <SCORE.INTER.REPUL>  (1) 
0.0648122

>  <SCORE.INTER.ROT>  (1) 
7

>  <SCORE.INTER.VDW>  (1) 
-26.1252

>  <SCORE.INTER.norm>  (1) 
-0.703454

>  <SCORE.INTRA>  (1) 
3.97466

>  <SCORE.INTRA.DIHEDRAL>  (1) 
4.00934

>  <SCORE.INTRA.DIHEDRAL.0>  (1) 
3.78927

>  <SCORE.INTRA.POLAR>  (1) 
0

>  <SCORE.INTRA.POLAR.0>  (1) 
0

>  <SCORE.INTRA.REPUL>  (1) 
0

>  <SCORE.INTRA.REPUL.0>  (1) 
0

>  <SCORE.INTRA.VDW>  (1) 
1.96999

>  <SCORE.INTRA.VDW.0>  (1) 
1.02728

>  <SCORE.INTRA.norm>  (1) 
0.180666

>  <SCORE.RESTR>  (1) 
0.176734

>  <SCORE.RESTR.CAVITY>  (1) 
0.176734

>  <SCORE.RESTR.norm>  (1) 
0.00803338

>  <SCORE.SYSTEM>  (1) 
-7.1948

>  <SCORE.SYSTEM.CONST>  (1) 
0

>  <SCORE.SYSTEM.DIHEDRAL>  (1) 
7.32418

>  <SCORE.SYSTEM.POLAR>  (1) 
-3.35475

>  <SCORE.SYSTEM.REPUL>  (1) 
0.231234

>  <SCORE.SYSTEM.VDW>  (1) 
-0.6069

>  <SCORE.SYSTEM.norm>  (1) 
-0.327036

>  <SCORE.heavy>  (1) 
22

>  <SCORE.norm>  (1) 
-0.841791

$$$$
denovo_401
     RDKit          3D

 22 23  0  0  0  0  0  0  0  0999 V2000
  -16.0942   12.9585  -11.3308 C   0  0  0  0  0  0  0  0  0  0  0  0
  -14.9718   13.5596  -11.9628 O   0  0  0  0  0  0  0  0  0  0  0  0
  -14.5649   12.8292  -13.1223 C   0  0  0  0  0  0  0  0  0  0  0  0
  -13.3241   13.4899  -13.7618 C   0  0  2  0  0  0  0  0  0  0  0  0
  -13.6993   14.8683  -14.2949 C   0  0  0  0  0  0  0  0  0  0  0  0
  -13.5723   15.1420  -15.6652 C   0  0  0  0  0  0  0  0  0  0  0  0
  -13.9075   16.3979  -16.1742 C   0  0  0  0  0  0  0  0  0  0  0  0
  -14.3725   17.3959  -15.3210 C   0  0  0  0  0  0  0  0  0  0  0  0
  -14.5026   17.1393  -13.9581 C   0  0  0  0  0  0  0  0  0  0  0  0
  -14.1677   15.8842  -13.4467 C   0  0  0  0  0  0  0  0  0  0  0  0
  -12.6730   12.6085  -14.8581 C   0  0  2  0  0  0  0  0  0  0  0  0
  -12.4077   11.1587  -14.4393 C   0  0  0  0  0  0  0  0  0  0  0  0
  -11.2353   10.6736  -15.2976 C   0  0  0  0  0  0  0  0  0  0  0  0
  -10.7354   11.8883  -16.0843 C   0  0  2  0  0  0  0  0  0  0  0  0
   -9.2129   11.9922  -16.2795 C   0  0  0  0  0  0  0  0  0  0  0  0
   -8.5423   11.1108  -17.3883 C   0  0  0  0  0  0  0  0  0  0  0  0
   -8.7473   11.7683  -18.7683 C   0  0  0  0  0  0  0  0  0  0  0  0
   -7.0225   11.1151  -17.0843 C   0  0  0  0  0  0  0  0  0  0  0  0
   -9.0807    9.6452  -17.3981 C   0  0  1  0  0  0  0  0  0  0  0  0
  -10.4444    9.4539  -18.0627 C   0  0  0  0  0  0  0  0  0  0  0  0
   -8.1790    8.7733  -18.0819 O   0  0  0  0  0  0  0  0  0  0  0  0
  -11.2759   13.0769  -15.2786 C   0  0  0  0  0  0  0  0  0  0  0  0
  1  2  1  0
  2  3  1  0
  4  3  1  6
  4  5  1  0
  5  6  2  0
  6  7  1  0
  7  8  2  0
  8  9  1  0
  9 10  2  0
  4 11  1  0
 11 12  1  1
 12 13  1  0
 13 14  1  0
 14 15  1  1
 15 16  1  0
 16 17  1  0
 16 18  1  0
 16 19  1  0
 19 20  1  6
 19 21  1  0
 14 22  1  0
 10  5  1  0
 22 11  1  0
M  END
>  <CHROM.0>  (2) 
-84.63721586,59.48271645,-62.60695249,62.91590839,-67.52563435,-62.02500193
-65.17291796,66.65762241,80.77659997,-63.53357355,-62.94133202,-71.03412530
-177.03709521,62.56712308

>  <CHROM.1>  (2) 
-178.59790992,-65.70299759,-118.86025078,-49.82703355,78.82607269,79.63688857
78.36194546,73.17191819,-11.88612700,12.75659518,-15.38058011,2.79459281
0.74719810,-0.37550960

>  <Name>  (2) 
denovo_401

>  <RI>  (2) 
1.14584e+09

>  <Rbt.Current_Directory>  (2) 
/tmp/claude-0/-home-user-Rare-cancers/1af35c7f-7dc4-53ce-91d2-1631a2a10a85/scratchpad/smwork/cross/dock_8XTT-model2

>  <Rbt.Executable>  (2) 
rbdock - v25.07-alpha

>  <Rbt.Library>  (2) 
libRbt.so (25.07, Buildalpha)

>  <Rbt.Parameter_File>  (2) 
/tmp/claude-0/-home-user-Rare-cancers/1af35c7f-7dc4-53ce-91d2-1631a2a10a85/scratchpad/rdroot/share/rDock/data/scripts/dock.prm

>  <Rbt.Receptor>  (2) 
rec.prm

>  <SCORE>  (2) 
-18.0291

>  <SCORE.INTER>  (2) 
-15.388

>  <SCORE.INTER.CONST>  (2) 
1

>  <SCORE.INTER.POLAR>  (2) 
0

>  <SCORE.INTER.REPUL>  (2) 
0

>  <SCORE.INTER.ROT>  (2) 
7

>  <SCORE.INTER.VDW>  (2) 
-27.788

>  <SCORE.INTER.norm>  (2) 
-0.699456

>  <SCORE.INTRA>  (2) 
5.18022

>  <SCORE.INTRA.DIHEDRAL>  (2) 
2.37616

>  <SCORE.INTRA.DIHEDRAL.0>  (2) 
3.78927

>  <SCORE.INTRA.POLAR>  (2) 
0

>  <SCORE.INTRA.POLAR.0>  (2) 
0

>  <SCORE.INTRA.REPUL>  (2) 
0

>  <SCORE.INTRA.REPUL.0>  (2) 
0

>  <SCORE.INTRA.VDW>  (2) 
3.99214

>  <SCORE.INTRA.VDW.0>  (2) 
1.02728

>  <SCORE.INTRA.norm>  (2) 
0.235465

>  <SCORE.RESTR>  (2) 
0

>  <SCORE.RESTR.CAVITY>  (2) 
0

>  <SCORE.RESTR.norm>  (2) 
0

>  <SCORE.SYSTEM>  (2) 
-7.82126

>  <SCORE.SYSTEM.CONST>  (2) 
0

>  <SCORE.SYSTEM.DIHEDRAL>  (2) 
7.19253

>  <SCORE.SYSTEM.POLAR>  (2) 
-3.16572

>  <SCORE.SYSTEM.REPUL>  (2) 
0.247313

>  <SCORE.SYSTEM.VDW>  (2) 
-1.89066

>  <SCORE.SYSTEM.norm>  (2) 
-0.355512

>  <SCORE.heavy>  (2) 
22

>  <SCORE.norm>  (2) 
-0.819503

$$$$
denovo_401
     RDKit          3D

 22 23  0  0  0  0  0  0  0  0999 V2000
  -13.3757   17.0691  -17.1326 C   0  0  0  0  0  0  0  0  0  0  0  0
  -13.6392   15.7073  -16.8220 O   0  0  0  0  0  0  0  0  0  0  0  0
  -13.9433   15.5311  -15.4364 C   0  0  0  0  0  0  0  0  0  0  0  0
  -13.6689   14.0723  -15.0104 C   0  0  2  0  0  0  0  0  0  0  0  0
  -14.2216   13.8388  -13.6086 C   0  0  0  0  0  0  0  0  0  0  0  0
  -14.0720   14.8314  -12.6281 C   0  0  0  0  0  0  0  0  0  0  0  0
  -14.5679   14.6375  -11.3377 C   0  0  0  0  0  0  0  0  0  0  0  0
  -15.2181   13.4500  -11.0104 C   0  0  0  0  0  0  0  0  0  0  0  0
  -15.3730   12.4551  -11.9729 C   0  0  0  0  0  0  0  0  0  0  0  0
  -14.8776   12.6465  -13.2640 C   0  0  0  0  0  0  0  0  0  0  0  0
  -12.1696   13.6908  -15.1069 C   0  0  2  0  0  0  0  0  0  0  0  0
  -11.4620   14.1927  -16.3699 C   0  0  0  0  0  0  0  0  0  0  0  0
  -10.3028   13.2239  -16.6237 C   0  0  0  0  0  0  0  0  0  0  0  0
  -10.4475   12.0900  -15.6052 C   0  0  2  0  0  0  0  0  0  0  0  0
  -10.0961   10.6781  -16.1051 C   0  0  0  0  0  0  0  0  0  0  0  0
   -9.1639   10.5421  -17.3575 C   0  0  0  0  0  0  0  0  0  0  0  0
   -8.7008    9.0781  -17.5031 C   0  0  0  0  0  0  0  0  0  0  0  0
  -10.0406   10.8846  -18.5889 C   0  0  0  0  0  0  0  0  0  0  0  0
   -7.9319   11.4993  -17.2963 C   0  0  1  0  0  0  0  0  0  0  0  0
   -6.9691   11.2526  -16.1343 C   0  0  0  0  0  0  0  0  0  0  0  0
   -7.1499   11.4037  -18.4881 O   0  0  0  0  0  0  0  0  0  0  0  0
  -11.9198   12.1809  -15.1832 C   0  0  0  0  0  0  0  0  0  0  0  0
  1  2  1  0
  2  3  1  0
  4  3  1  1
  4  5  1  0
  5  6  2  0
  6  7  1  0
  7  8  2  0
  8  9  1  0
  9 10  2  0
  4 11  1  0
 11 12  1  6
 12 13  1  0
 13 14  1  0
 14 15  1  6
 15 16  1  0
 16 17  1  0
 16 18  1  0
 16 19  1  0
 19 20  1  1
 19 21  1  0
 14 22  1  0
 10  5  1  0
 22 11  1  0
M  END
>  <CHROM.0>  (3) 
35.79692100,-62.66281237,-58.98946349,64.95590733,177.05434680,-62.57670521
-174.75722984,-50.05215244,-36.81637414,66.29852945,-62.09548950,-69.14401212
-64.08159175,67.86709531

>  <CHROM.1>  (3) 
-157.33503809,-170.23159341,-40.57697272,-42.63841063,21.66053686,168.00128765
62.64576210,-57.50260472,-11.68658198,12.94132310,-15.50537337,3.09381103
-0.72359721,2.38991533

>  <Name>  (3) 
denovo_401

>  <RI>  (3) 
1.14584e+09

>  <Rbt.Current_Directory>  (3) 
/tmp/claude-0/-home-user-Rare-cancers/1af35c7f-7dc4-53ce-91d2-1631a2a10a85/scratchpad/smwork/cross/dock_8XTT-model2

>  <Rbt.Executable>  (3) 
rbdock - v25.07-alpha

>  <Rbt.Library>  (3) 
libRbt.so (25.07, Buildalpha)

>  <Rbt.Parameter_File>  (3) 
/tmp/claude-0/-home-user-Rare-cancers/1af35c7f-7dc4-53ce-91d2-1631a2a10a85/scratchpad/rdroot/share/rDock/data/scripts/dock.prm

>  <Rbt.Receptor>  (3) 
rec.prm

>  <SCORE>  (3) 
-16.5959

>  <SCORE.INTER>  (3) 
-15.5546

>  <SCORE.INTER.CONST>  (3) 
1

>  <SCORE.INTER.POLAR>  (3) 
-0.935994

>  <SCORE.INTER.REPUL>  (3) 
0

>  <SCORE.INTER.ROT>  (3) 
7

>  <SCORE.INTER.VDW>  (3) 
-24.7722

>  <SCORE.INTER.norm>  (3) 
-0.707026

>  <SCORE.INTRA>  (3) 
7.56929

>  <SCORE.INTRA.DIHEDRAL>  (3) 
6.55799

>  <SCORE.INTRA.DIHEDRAL.0>  (3) 
3.78927

>  <SCORE.INTRA.POLAR>  (3) 
0

>  <SCORE.INTRA.POLAR.0>  (3) 
0

>  <SCORE.INTRA.REPUL>  (3) 
0

>  <SCORE.INTRA.REPUL.0>  (3) 
0

>  <SCORE.INTRA.VDW>  (3) 
4.29029

>  <SCORE.INTRA.VDW.0>  (3) 
1.02728

>  <SCORE.INTRA.norm>  (3) 
0.344058

>  <SCORE.RESTR>  (3) 
0.00766685

>  <SCORE.RESTR.CAVITY>  (3) 
0.00766685

>  <SCORE.RESTR.norm>  (3) 
0.000348493

>  <SCORE.SYSTEM>  (3) 
-8.61832

>  <SCORE.SYSTEM.CONST>  (3) 
0

>  <SCORE.SYSTEM.DIHEDRAL>  (3) 
4.64777

>  <SCORE.SYSTEM.POLAR>  (3) 
-3.26903

>  <SCORE.SYSTEM.REPUL>  (3) 
0.194769

>  <SCORE.SYSTEM.VDW>  (3) 
-0.801332

>  <SCORE.SYSTEM.norm>  (3) 
-0.391742

>  <SCORE.heavy>  (3) 
22

>  <SCORE.norm>  (3) 
-0.75436

$$$$
denovo_401
     RDKit          3D

 22 23  0  0  0  0  0  0  0  0999 V2000
  -16.0852   13.0105  -11.2101 C   0  0  0  0  0  0  0  0  0  0  0  0
  -14.9875   13.6175  -11.8786 O   0  0  0  0  0  0  0  0  0  0  0  0
  -14.6268   12.8995  -13.0609 C   0  0  0  0  0  0  0  0  0  0  0  0
  -13.3851   13.5410  -13.7178 C   0  0  2  0  0  0  0  0  0  0  0  0
  -13.7514   14.9171  -14.2630 C   0  0  0  0  0  0  0  0  0  0  0  0
  -14.2963   15.8830  -13.4033 C   0  0  0  0  0  0  0  0  0  0  0  0
  -14.6413   17.1482  -13.8818 C   0  0  0  0  0  0  0  0  0  0  0  0
  -14.4473   17.4638  -15.2245 C   0  0  0  0  0  0  0  0  0  0  0  0
  -13.9086   16.5148  -16.0901 C   0  0  0  0  0  0  0  0  0  0  0  0
  -13.5631   15.2488  -15.6140 C   0  0  0  0  0  0  0  0  0  0  0  0
  -12.7516   12.6413  -14.8096 C   0  0  2  0  0  0  0  0  0  0  0  0
  -12.5309   11.1846  -14.3892 C   0  0  0  0  0  0  0  0  0  0  0  0
  -11.3667   10.6662  -15.2392 C   0  0  0  0  0  0  0  0  0  0  0  0
  -10.8266   11.8660  -16.0220 C   0  0  2  0  0  0  0  0  0  0  0  0
   -9.3004   11.9264  -16.2062 C   0  0  0  0  0  0  0  0  0  0  0  0
   -8.6518   11.0562  -17.3367 C   0  0  0  0  0  0  0  0  0  0  0  0
   -9.5350    9.8224  -17.6131 C   0  0  0  0  0  0  0  0  0  0  0  0
   -8.6542   11.9341  -18.6140 C   0  0  0  0  0  0  0  0  0  0  0  0
   -7.1934   10.6161  -16.9941 C   0  0  1  0  0  0  0  0  0  0  0  0
   -6.4459    9.8980  -18.1181 C   0  0  0  0  0  0  0  0  0  0  0  0
   -6.3896   11.7420  -16.6375 O   0  0  0  0  0  0  0  0  0  0  0  0
  -11.3387   13.0697  -15.2200 C   0  0  0  0  0  0  0  0  0  0  0  0
  1  2  1  0
  2  3  1  0
  4  3  1  6
  4  5  1  0
  5  6  2  0
  6  7  1  0
  7  8  2  0
  8  9  1  0
  9 10  2  0
  4 11  1  0
 11 12  1  1
 12 13  1  0
 13 14  1  0
 14 15  1  1
 15 16  1  0
 16 17  1  0
 16 18  1  0
 16 19  1  0
 19 20  1  6
 19 21  1  0
 14 22  1  0
 10  5  1  0
 22 11  1  0
M  END
>  <CHROM.0>  (4) 
-163.74837093,-60.22124099,-60.28867797,65.66218937,75.80370209,-65.07062863
63.47228898,66.64645075,-39.98006231,-171.19130981,-174.14932961,-70.60070496
69.54436120,66.47814736

>  <CHROM.1>  (4) 
-176.90689560,-67.83032412,56.46542453,-48.28957428,80.49365583,-27.05504845
-173.43294268,70.12608710,-11.68348011,12.95329767,-15.25363067,2.89737005
0.65718557,-0.42685221

>  <Name>  (4) 
denovo_401

>  <RI>  (4) 
1.14584e+09

>  <Rbt.Current_Directory>  (4) 
/tmp/claude-0/-home-user-Rare-cancers/1af35c7f-7dc4-53ce-91d2-1631a2a10a85/scratchpad/smwork/cross/dock_8XTT-model2

>  <Rbt.Executable>  (4) 
rbdock - v25.07-alpha

>  <Rbt.Library>  (4) 
libRbt.so (25.07, Buildalpha)

>  <Rbt.Parameter_File>  (4) 
/tmp/claude-0/-home-user-Rare-cancers/1af35c7f-7dc4-53ce-91d2-1631a2a10a85/scratchpad/rdroot/share/rDock/data/scripts/dock.prm

>  <Rbt.Receptor>  (4) 
rec.prm

>  <SCORE>  (4) 
-14.8845

>  <SCORE.INTER>  (4) 
-14.7981

>  <SCORE.INTER.CONST>  (4) 
1

>  <SCORE.INTER.POLAR>  (4) 
0

>  <SCORE.INTER.REPUL>  (4) 
0

>  <SCORE.INTER.ROT>  (4) 
7

>  <SCORE.INTER.VDW>  (4) 
-27.1981

>  <SCORE.INTER.norm>  (4) 
-0.672642

>  <SCORE.INTRA>  (4) 
6.05007

>  <SCORE.INTRA.DIHEDRAL>  (4) 
3.77615

>  <SCORE.INTRA.DIHEDRAL.0>  (4) 
3.78927

>  <SCORE.INTRA.POLAR>  (4) 
0

>  <SCORE.INTRA.POLAR.0>  (4) 
0

>  <SCORE.INTRA.REPUL>  (4) 
0

>  <SCORE.INTRA.REPUL.0>  (4) 
0

>  <SCORE.INTRA.VDW>  (4) 
4.162

>  <SCORE.INTRA.VDW.0>  (4) 
1.02728

>  <SCORE.INTRA.norm>  (4) 
0.275003

>  <SCORE.RESTR>  (4) 
0

>  <SCORE.RESTR.CAVITY>  (4) 
0

>  <SCORE.RESTR.norm>  (4) 
0

>  <SCORE.SYSTEM>  (4) 
-6.13644

>  <SCORE.SYSTEM.CONST>  (4) 
0

>  <SCORE.SYSTEM.DIHEDRAL>  (4) 
4.7253

>  <SCORE.SYSTEM.POLAR>  (4) 
-3.0126

>  <SCORE.SYSTEM.REPUL>  (4) 
0.5426

>  <SCORE.SYSTEM.VDW>  (4) 
-0.969238

>  <SCORE.SYSTEM.norm>  (4) 
-0.278929

>  <SCORE.heavy>  (4) 
22

>  <SCORE.norm>  (4) 
-0.676568

$$$$
denovo_401
     RDKit          3D

 22 23  0  0  0  0  0  0  0  0999 V2000
  -13.4073   17.0144  -17.1083 C   0  0  0  0  0  0  0  0  0  0  0  0
  -13.8109   15.6919  -16.7789 O   0  0  0  0  0  0  0  0  0  0  0  0
  -14.0404   15.5440  -15.3758 C   0  0  0  0  0  0  0  0  0  0  0  0
  -13.7243   14.0989  -14.9320 C   0  0  2  0  0  0  0  0  0  0  0  0
  -14.2450   13.8758  -13.5163 C   0  0  0  0  0  0  0  0  0  0  0  0
  -14.8288   12.6461  -13.1761 C   0  0  0  0  0  0  0  0  0  0  0  0
  -15.3144   12.4213  -11.8867 C   0  0  0  0  0  0  0  0  0  0  0  0
  -15.2239   13.4219  -10.9221 C   0  0  0  0  0  0  0  0  0  0  0  0
  -14.6480   14.6483  -11.2455 C   0  0  0  0  0  0  0  0  0  0  0  0
  -14.1620   14.8755  -12.5343 C   0  0  0  0  0  0  0  0  0  0  0  0
  -12.2187   13.7503  -15.0513 C   0  0  2  0  0  0  0  0  0  0  0  0
  -11.5328   14.2982  -16.3070 C   0  0  0  0  0  0  0  0  0  0  0  0
  -10.3570   13.3597  -16.5956 C   0  0  0  0  0  0  0  0  0  0  0  0
  -10.4697   12.1976  -15.6053 C   0  0  2  0  0  0  0  0  0  0  0  0
  -10.0949   10.8062  -16.1442 C   0  0  0  0  0  0  0  0  0  0  0  0
   -8.8797   10.6908  -17.1270 C   0  0  0  0  0  0  0  0  0  0  0  0
   -7.5816   11.0903  -16.3961 C   0  0  0  0  0  0  0  0  0  0  0  0
   -8.7676    9.1912  -17.5025 C   0  0  0  0  0  0  0  0  0  0  0  0
   -9.0657   11.5516  -18.4162 C   0  0  1  0  0  0  0  0  0  0  0  0
   -7.9743   11.3883  -19.4746 C   0  0  0  0  0  0  0  0  0  0  0  0
  -10.2996   11.2404  -19.0656 O   0  0  0  0  0  0  0  0  0  0  0  0
  -11.9397   12.2481  -15.1684 C   0  0  0  0  0  0  0  0  0  0  0  0
  1  2  1  0
  2  3  1  0
  4  3  1  1
  4  5  1  0
  5  6  2  0
  6  7  1  0
  7  8  2  0
  8  9  1  0
  9 10  2  0
  4 11  1  0
 11 12  1  6
 12 13  1  0
 13 14  1  0
 14 15  1  6
 15 16  1  0
 16 17  1  0
 16 18  1  0
 16 19  1  0
 19 20  1  6
 19 21  1  0
 14 22  1  0
 10  5  1  0
 22 11  1  0
M  END
>  <CHROM.0>  (5) 
-159.31589386,-179.08958992,-58.33134651,150.94191506,73.00257192,-64.52511844
-168.22221988,68.42586929,-31.65789289,-59.88667732,-57.85646749,-68.75207240
-175.34829130,-176.07035401

>  <CHROM.1>  (5) 
-149.50545887,-168.22256853,141.31832370,-40.17943212,38.60034278,64.62230799
-174.77101680,-54.87694928,-11.86323695,12.98926194,-15.59539204,2.98302839
-0.78662211,2.32134228

>  <Name>  (5) 
denovo_401

>  <RI>  (5) 
1.14584e+09

>  <Rbt.Current_Directory>  (5) 
/tmp/claude-0/-home-user-Rare-cancers/1af35c7f-7dc4-53ce-91d2-1631a2a10a85/scratchpad/smwork/cross/dock_8XTT-model2

>  <Rbt.Executable>  (5) 
rbdock - v25.07-alpha

>  <Rbt.Library>  (5) 
libRbt.so (25.07, Buildalpha)

>  <Rbt.Parameter_File>  (5) 
/tmp/claude-0/-home-user-Rare-cancers/1af35c7f-7dc4-53ce-91d2-1631a2a10a85/scratchpad/rdroot/share/rDock/data/scripts/dock.prm

>  <Rbt.Receptor>  (5) 
rec.prm

>  <SCORE>  (5) 
-14.7095

>  <SCORE.INTER>  (5) 
-16.7555

>  <SCORE.INTER.CONST>  (5) 
1

>  <SCORE.INTER.POLAR>  (5) 
-1.31932

>  <SCORE.INTER.REPUL>  (5) 
0.0132085

>  <SCORE.INTER.ROT>  (5) 
7

>  <SCORE.INTER.VDW>  (5) 
-24.7358

>  <SCORE.INTER.norm>  (5) 
-0.761613

>  <SCORE.INTRA>  (5) 
6.59754

>  <SCORE.INTRA.DIHEDRAL>  (5) 
4.92931

>  <SCORE.INTRA.DIHEDRAL.0>  (5) 
3.78927

>  <SCORE.INTRA.POLAR>  (5) 
0

>  <SCORE.INTRA.POLAR.0>  (5) 
0

>  <SCORE.INTRA.REPUL>  (5) 
0

>  <SCORE.INTRA.REPUL.0>  (5) 
0

>  <SCORE.INTRA.VDW>  (5) 
4.13288

>  <SCORE.INTRA.VDW.0>  (5) 
1.02728

>  <SCORE.INTRA.norm>  (5) 
0.299888

>  <SCORE.RESTR>  (5) 
0.0113749

>  <SCORE.RESTR.CAVITY>  (5) 
0.0113749

>  <SCORE.RESTR.norm>  (5) 
0.000517041

>  <SCORE.SYSTEM>  (5) 
-4.5629

>  <SCORE.SYSTEM.CONST>  (5) 
0

>  <SCORE.SYSTEM.DIHEDRAL>  (5) 
8.16235

>  <SCORE.SYSTEM.POLAR>  (5) 
-2.43378

>  <SCORE.SYSTEM.REPUL>  (5) 
0.197866

>  <SCORE.SYSTEM.VDW>  (5) 
-1.35855

>  <SCORE.SYSTEM.norm>  (5) 
-0.207405

>  <SCORE.heavy>  (5) 
22

>  <SCORE.norm>  (5) 
-0.668613

$$$$
denovo_401
     RDKit          3D

 22 23  0  0  0  0  0  0  0  0999 V2000
  -15.1127   17.6651  -14.4174 C   0  0  0  0  0  0  0  0  0  0  0  0
  -15.1009   16.3198  -14.8762 O   0  0  0  0  0  0  0  0  0  0  0  0
  -13.8422   15.9711  -15.4570 C   0  0  0  0  0  0  0  0  0  0  0  0
  -13.5504   14.4703  -15.2388 C   0  0  2  0  0  0  0  0  0  0  0  0
  -14.0960   14.0377  -13.8823 C   0  0  0  0  0  0  0  0  0  0  0  0
  -14.0713   14.9358  -12.8044 C   0  0  0  0  0  0  0  0  0  0  0  0
  -14.5632   14.5597  -11.5533 C   0  0  0  0  0  0  0  0  0  0  0  0
  -15.0845   13.2822  -11.3630 C   0  0  0  0  0  0  0  0  0  0  0  0
  -15.1145   12.3794  -12.4233 C   0  0  0  0  0  0  0  0  0  0  0  0
  -14.6229   12.7531  -13.6753 C   0  0  0  0  0  0  0  0  0  0  0  0
  -12.0473   14.1231  -15.3899 C   0  0  2  0  0  0  0  0  0  0  0  0
  -11.4460   14.4655  -16.7569 C   0  0  0  0  0  0  0  0  0  0  0  0
  -10.2698   13.5052  -16.9590 C   0  0  0  0  0  0  0  0  0  0  0  0
  -10.3016   12.5197  -15.7878 C   0  0  2  0  0  0  0  0  0  0  0  0
   -9.9301   11.0630  -16.1145 C   0  0  0  0  0  0  0  0  0  0  0  0
   -8.7084   10.8003  -17.0603 C   0  0  0  0  0  0  0  0  0  0  0  0
   -7.4015   11.1916  -16.3408 C   0  0  0  0  0  0  0  0  0  0  0  0
   -8.6722    9.2703  -17.3059 C   0  0  0  0  0  0  0  0  0  0  0  0
   -8.8283   11.5567  -18.4209 C   0  0  1  0  0  0  0  0  0  0  0  0
   -7.6506   11.3711  -19.3783 C   0  0  0  0  0  0  0  0  0  0  0  0
   -9.9925   11.1406  -19.1369 O   0  0  0  0  0  0  0  0  0  0  0  0
  -11.7448   12.6251  -15.2774 C   0  0  0  0  0  0  0  0  0  0  0  0
  1  2  1  0
  2  3  1  0
  4  3  1  1
  4  5  1  0
  5  6  2  0
  6  7  1  0
  7  8  2  0
  8  9  1  0
  9 10  2  0
  4 11  1  0
 11 12  1  6
 12 13  1  0
 13 14  1  0
 14 15  1  6
 15 16  1  0
 16 17  1  0
 16 18  1  0
 16 19  1  0
 19 20  1  6
 19 21  1  0
 14 22  1  0
 10  5  1  0
 22 11  1  0
M  END
>  <CHROM.0>  (6) 
172.34729090,-179.57031958,-62.46980400,65.02098817,176.50408044,-62.30799448
-65.50285723,69.63569201,-162.04459841,59.73308708,-174.50512168,-72.89794581
-63.35050464,66.33693808

>  <CHROM.1>  (6) 
149.06545196,-35.17714054,-34.41527719,-59.06412489,42.70633107,69.17561958
178.54302287,50.12147310,-11.86165270,13.17558826,-15.52689696,-3.11923133
-0.77368930,2.45026405

>  <Name>  (6) 
denovo_401

>  <RI>  (6) 
1.14584e+09

>  <Rbt.Current_Directory>  (6) 
/tmp/claude-0/-home-user-Rare-cancers/1af35c7f-7dc4-53ce-91d2-1631a2a10a85/scratchpad/smwork/cross/dock_8XTT-model2

>  <Rbt.Executable>  (6) 
rbdock - v25.07-alpha

>  <Rbt.Library>  (6) 
libRbt.so (25.07, Buildalpha)

>  <Rbt.Parameter_File>  (6) 
/tmp/claude-0/-home-user-Rare-cancers/1af35c7f-7dc4-53ce-91d2-1631a2a10a85/scratchpad/rdroot/share/rDock/data/scripts/dock.prm

>  <Rbt.Receptor>  (6) 
rec.prm

>  <SCORE>  (6) 
-14.6804

>  <SCORE.INTER>  (6) 
-13.6296

>  <SCORE.INTER.CONST>  (6) 
1

>  <SCORE.INTER.POLAR>  (6) 
-0.597966

>  <SCORE.INTER.REPUL>  (6) 
0.0053757

>  <SCORE.INTER.ROT>  (6) 
7

>  <SCORE.INTER.VDW>  (6) 
-24.0234

>  <SCORE.INTER.norm>  (6) 
-0.619526

>  <SCORE.INTRA>  (6) 
5.89485

>  <SCORE.INTRA.DIHEDRAL>  (6) 
4.87537

>  <SCORE.INTRA.DIHEDRAL.0>  (6) 
3.78927

>  <SCORE.INTRA.POLAR>  (6) 
0

>  <SCORE.INTRA.POLAR.0>  (6) 
0

>  <SCORE.INTRA.REPUL>  (6) 
0

>  <SCORE.INTRA.REPUL.0>  (6) 
0

>  <SCORE.INTRA.VDW>  (6) 
3.45716

>  <SCORE.INTRA.VDW.0>  (6) 
1.02728

>  <SCORE.INTRA.norm>  (6) 
0.267948

>  <SCORE.RESTR>  (6) 
0.0483671

>  <SCORE.RESTR.CAVITY>  (6) 
0.0483671

>  <SCORE.RESTR.norm>  (6) 
0.00219851

>  <SCORE.SYSTEM>  (6) 
-6.99405

>  <SCORE.SYSTEM.CONST>  (6) 
0

>  <SCORE.SYSTEM.DIHEDRAL>  (6) 
2.83803

>  <SCORE.SYSTEM.POLAR>  (6) 
-2.9631

>  <SCORE.SYSTEM.REPUL>  (6) 
0.423344

>  <SCORE.SYSTEM.VDW>  (6) 
-0.455239

>  <SCORE.SYSTEM.norm>  (6) 
-0.317911

>  <SCORE.heavy>  (6) 
22

>  <SCORE.norm>  (6) 
-0.667291

$$$$
denovo_401
     RDKit          3D

 22 23  0  0  0  0  0  0  0  0999 V2000
  -14.5311   17.5422  -14.1745 C   0  0  0  0  0  0  0  0  0  0  0  0
  -13.6023   16.5290  -14.5367 O   0  0  0  0  0  0  0  0  0  0  0  0
  -14.1908   15.5601  -15.4075 C   0  0  0  0  0  0  0  0  0  0  0  0
  -13.8029   14.1338  -14.9599 C   0  0  2  0  0  0  0  0  0  0  0  0
  -14.2839   13.9000  -13.5320 C   0  0  0  0  0  0  0  0  0  0  0  0
  -14.9173   12.6925  -13.2007 C   0  0  0  0  0  0  0  0  0  0  0  0
  -15.3678   12.4586  -11.9003 C   0  0  0  0  0  0  0  0  0  0  0  0
  -15.1924   13.4277  -10.9155 C   0  0  0  0  0  0  0  0  0  0  0  0
  -14.5666   14.6318  -11.2297 C   0  0  0  0  0  0  0  0  0  0  0  0
  -14.1154   14.8682  -12.5296 C   0  0  0  0  0  0  0  0  0  0  0  0
  -12.2864   13.8499  -15.1083 C   0  0  2  0  0  0  0  0  0  0  0  0
  -11.6660   14.3544  -16.4153 C   0  0  0  0  0  0  0  0  0  0  0  0
  -10.4550   13.4568  -16.6879 C   0  0  0  0  0  0  0  0  0  0  0  0
  -10.4810   12.3512  -15.6291 C   0  0  2  0  0  0  0  0  0  0  0  0
  -10.0551   10.9496  -16.0991 C   0  0  0  0  0  0  0  0  0  0  0  0
   -8.8298   10.8297  -17.0688 C   0  0  0  0  0  0  0  0  0  0  0  0
   -7.5455   11.2741  -16.3395 C   0  0  0  0  0  0  0  0  0  0  0  0
   -8.6865    9.3225  -17.4009 C   0  0  0  0  0  0  0  0  0  0  0  0
   -9.0212   11.6503  -18.3832 C   0  0  1  0  0  0  0  0  0  0  0  0
   -7.9180   11.4786  -19.4279 C   0  0  0  0  0  0  0  0  0  0  0  0
  -10.2433   11.2972  -19.0334 O   0  0  0  0  0  0  0  0  0  0  0  0
  -11.9379   12.3582  -15.1478 C   0  0  0  0  0  0  0  0  0  0  0  0
  1  2  1  0
  2  3  1  0
  4  3  1  1
  4  5  1  0
  5  6  2  0
  6  7  1  0
  7  8  2  0
  8  9  1  0
  9 10  2  0
  4 11  1  0
 11 12  1  6
 12 13  1  0
 13 14  1  0
 14 15  1  6
 15 16  1  0
 16 17  1  0
 16 18  1  0
 16 19  1  0
 19 20  1  6
 19 21  1  0
 14 22  1  0
 10  5  1  0
 22 11  1  0
M  END
>  <CHROM.0>  (7) 
-89.44185272,-66.56035935,-59.27722782,68.50931866,74.35945526,-64.99679728
-63.44929022,68.44732754,86.78293858,62.53481046,-59.49406669,56.99278010
-173.60761851,64.47034104

>  <CHROM.1>  (7) 
-135.39577059,59.24912498,135.53931194,-43.15017588,40.97136063,66.05364518
-174.79636972,174.86477791,-11.91569787,13.13287778,-15.33246435,-3.09954124
-0.81451890,2.56040844

>  <Name>  (7) 
denovo_401

>  <RI>  (7) 
1.14584e+09

>  <Rbt.Current_Directory>  (7) 
/tmp/claude-0/-home-user-Rare-cancers/1af35c7f-7dc4-53ce-91d2-1631a2a10a85/scratchpad/smwork/cross/dock_8XTT-model2

>  <Rbt.Executable>  (7) 
rbdock - v25.07-alpha

>  <Rbt.Library>  (7) 
libRbt.so (25.07, Buildalpha)

>  <Rbt.Parameter_File>  (7) 
/tmp/claude-0/-home-user-Rare-cancers/1af35c7f-7dc4-53ce-91d2-1631a2a10a85/scratchpad/rdroot/share/rDock/data/scripts/dock.prm

>  <Rbt.Receptor>  (7) 
rec.prm

>  <SCORE>  (7) 
-14.5362

>  <SCORE.INTER>  (7) 
-14.1511

>  <SCORE.INTER.CONST>  (7) 
1

>  <SCORE.INTER.POLAR>  (7) 
-0.291239

>  <SCORE.INTER.REPUL>  (7) 
0.0276102

>  <SCORE.INTER.ROT>  (7) 
7

>  <SCORE.INTER.VDW>  (7) 
-25.6989

>  <SCORE.INTER.norm>  (7) 
-0.643231

>  <SCORE.INTRA>  (7) 
6.66814

>  <SCORE.INTRA.DIHEDRAL>  (7) 
6.14707

>  <SCORE.INTRA.DIHEDRAL.0>  (7) 
3.78927

>  <SCORE.INTRA.POLAR>  (7) 
0

>  <SCORE.INTRA.POLAR.0>  (7) 
0

>  <SCORE.INTRA.REPUL>  (7) 
0

>  <SCORE.INTRA.REPUL.0>  (7) 
0

>  <SCORE.INTRA.VDW>  (7) 
3.5946

>  <SCORE.INTRA.VDW.0>  (7) 
1.02728

>  <SCORE.INTRA.norm>  (7) 
0.303097

>  <SCORE.RESTR>  (7) 
0

>  <SCORE.RESTR.CAVITY>  (7) 
0

>  <SCORE.RESTR.norm>  (7) 
0

>  <SCORE.SYSTEM>  (7) 
-7.0533

>  <SCORE.SYSTEM.CONST>  (7) 
0

>  <SCORE.SYSTEM.DIHEDRAL>  (7) 
8.61959

>  <SCORE.SYSTEM.POLAR>  (7) 
-2.92954

>  <SCORE.SYSTEM.REPUL>  (7) 
0.0223552

>  <SCORE.SYSTEM.VDW>  (7) 
-1.51445

>  <SCORE.SYSTEM.norm>  (7) 
-0.320605

>  <SCORE.heavy>  (7) 
22

>  <SCORE.norm>  (7) 
-0.660738

$$$$
denovo_401
     RDKit          3D

 22 23  0  0  0  0  0  0  0  0999 V2000
  -16.0991   13.0828  -11.1890 C   0  0  0  0  0  0  0  0  0  0  0  0
  -14.8450   13.4728  -11.7325 O   0  0  0  0  0  0  0  0  0  0  0  0
  -14.6272   12.8981  -13.0231 C   0  0  0  0  0  0  0  0  0  0  0  0
  -13.4010   13.5502  -13.6985 C   0  0  2  0  0  0  0  0  0  0  0  0
  -13.7800   14.9343  -14.2141 C   0  0  0  0  0  0  0  0  0  0  0  0
  -14.3741   15.8615  -13.3445 C   0  0  0  0  0  0  0  0  0  0  0  0
  -14.7314   17.1331  -13.7962 C   0  0  0  0  0  0  0  0  0  0  0  0
  -14.5008   17.4938  -15.1216 C   0  0  0  0  0  0  0  0  0  0  0  0
  -13.9130   16.5835  -15.9968 C   0  0  0  0  0  0  0  0  0  0  0  0
  -13.5551   15.3111  -15.5475 C   0  0  0  0  0  0  0  0  0  0  0  0
  -12.7925   12.6676  -14.8180 C   0  0  2  0  0  0  0  0  0  0  0  0
  -12.5451   11.2090  -14.4193 C   0  0  0  0  0  0  0  0  0  0  0  0
  -11.4025   10.7106  -15.3095 C   0  0  0  0  0  0  0  0  0  0  0  0
  -10.8981   11.9233  -16.0962 C   0  0  2  0  0  0  0  0  0  0  0  0
   -9.3789   12.0006  -16.3262 C   0  0  0  0  0  0  0  0  0  0  0  0
   -8.7845   11.3245  -17.6090 C   0  0  0  0  0  0  0  0  0  0  0  0
   -9.0564   12.2154  -18.8384 C   0  0  0  0  0  0  0  0  0  0  0  0
   -7.2501   11.2680  -17.3971 C   0  0  0  0  0  0  0  0  0  0  0  0
   -9.3444    9.8861  -17.8444 C   0  0  1  0  0  0  0  0  0  0  0  0
   -8.8259    9.1795  -19.0973 C   0  0  0  0  0  0  0  0  0  0  0  0
   -9.0307    9.0288  -16.7455 O   0  0  0  0  0  0  0  0  0  0  0  0
  -11.3970   13.1139  -15.2669 C   0  0  0  0  0  0  0  0  0  0  0  0
  1  2  1  0
  2  3  1  0
  4  3  1  6
  4  5  1  0
  5  6  2  0
  6  7  1  0
  7  8  2  0
  8  9  1  0
  9 10  2  0
  4 11  1  0
 11 12  1  1
 12 13  1  0
 13 14  1  0
 14 15  1  1
 15 16  1  0
 16 17  1  0
 16 18  1  0
 16 19  1  0
 19 20  1  6
 19 21  1  0
 14 22  1  0
 10  5  1  0
 22 11  1  0
M  END
>  <CHROM.0>  (8) 
29.34328363,175.96508466,-177.04638131,64.68257867,-70.28425903,-65.95410667
-66.21028572,73.23472253,-41.00970193,-163.92363642,66.80033908,-71.21522773
-61.14262659,179.14945894

>  <CHROM.1>  (8) 
168.99303968,-76.06444296,52.92527284,-49.04159314,89.55558095,77.04011532
178.80863338,65.01470110,-11.97107343,12.84542088,-15.34102341,2.85732737
0.78460210,-0.43079436

>  <Name>  (8) 
denovo_401

>  <RI>  (8) 
1.14584e+09

>  <Rbt.Current_Directory>  (8) 
/tmp/claude-0/-home-user-Rare-cancers/1af35c7f-7dc4-53ce-91d2-1631a2a10a85/scratchpad/smwork/cross/dock_8XTT-model2

>  <Rbt.Executable>  (8) 
rbdock - v25.07-alpha

>  <Rbt.Library>  (8) 
libRbt.so (25.07, Buildalpha)

>  <Rbt.Parameter_File>  (8) 
/tmp/claude-0/-home-user-Rare-cancers/1af35c7f-7dc4-53ce-91d2-1631a2a10a85/scratchpad/rdroot/share/rDock/data/scripts/dock.prm

>  <Rbt.Receptor>  (8) 
rec.prm

>  <SCORE>  (8) 
-14.0133

>  <SCORE.INTER>  (8) 
-14.0236

>  <SCORE.INTER.CONST>  (8) 
1

>  <SCORE.INTER.POLAR>  (8) 
-0.00347697

>  <SCORE.INTER.REPUL>  (8) 
0

>  <SCORE.INTER.ROT>  (8) 
7

>  <SCORE.INTER.VDW>  (8) 
-26.4118

>  <SCORE.INTER.norm>  (8) 
-0.637436

>  <SCORE.INTRA>  (8) 
3.83831

>  <SCORE.INTRA.DIHEDRAL>  (8) 
3.3651

>  <SCORE.INTRA.DIHEDRAL.0>  (8) 
3.78927

>  <SCORE.INTRA.POLAR>  (8) 
0

>  <SCORE.INTRA.POLAR.0>  (8) 
0

>  <SCORE.INTRA.REPUL>  (8) 
0

>  <SCORE.INTRA.REPUL.0>  (8) 
0

>  <SCORE.INTRA.VDW>  (8) 
2.15576

>  <SCORE.INTRA.VDW.0>  (8) 
1.02728

>  <SCORE.INTRA.norm>  (8) 
0.174469

>  <SCORE.RESTR>  (8) 
0.679587

>  <SCORE.RESTR.CAVITY>  (8) 
0.679587

>  <SCORE.RESTR.norm>  (8) 
0.0308903

>  <SCORE.SYSTEM>  (8) 
-4.5076

>  <SCORE.SYSTEM.CONST>  (8) 
0

>  <SCORE.SYSTEM.DIHEDRAL>  (8) 
5.90651

>  <SCORE.SYSTEM.POLAR>  (8) 
-2.67745

>  <SCORE.SYSTEM.REPUL>  (8) 
0.380478

>  <SCORE.SYSTEM.VDW>  (8) 
-0.259918

>  <SCORE.SYSTEM.norm>  (8) 
-0.204891

>  <SCORE.heavy>  (8) 
22

>  <SCORE.norm>  (8) 
-0.636968

$$$$
denovo_401
     RDKit          3D

 22 23  0  0  0  0  0  0  0  0999 V2000
  -15.2424   17.7378  -14.4358 C   0  0  0  0  0  0  0  0  0  0  0  0
  -15.1887   16.3625  -14.7909 O   0  0  0  0  0  0  0  0  0  0  0  0
  -13.9097   16.0030  -15.3185 C   0  0  0  0  0  0  0  0  0  0  0  0
  -13.6462   14.4969  -15.1013 C   0  0  2  0  0  0  0  0  0  0  0  0
  -14.1546   14.0845  -13.7242 C   0  0  0  0  0  0  0  0  0  0  0  0
  -14.0888   14.9941  -12.6578 C   0  0  0  0  0  0  0  0  0  0  0  0
  -14.5461   14.6366  -11.3882 C   0  0  0  0  0  0  0  0  0  0  0  0
  -15.0736   13.3665  -11.1680 C   0  0  0  0  0  0  0  0  0  0  0  0
  -15.1442   12.4524  -12.2166 C   0  0  0  0  0  0  0  0  0  0  0  0
  -14.6872   12.8075  -13.4870 C   0  0  0  0  0  0  0  0  0  0  0  0
  -12.1579   14.1131  -15.3021 C   0  0  2  0  0  0  0  0  0  0  0  0
  -11.5752   14.5020  -16.6648 C   0  0  0  0  0  0  0  0  0  0  0  0
  -10.4334   13.5181  -16.9378 C   0  0  0  0  0  0  0  0  0  0  0  0
  -10.4707   12.4795  -15.8135 C   0  0  2  0  0  0  0  0  0  0  0  0
  -10.1507   11.0296  -16.2163 C   0  0  0  0  0  0  0  0  0  0  0  0
   -8.9273   10.7720  -17.1614 C   0  0  0  0  0  0  0  0  0  0  0  0
   -7.6149   11.0251  -16.3919 C   0  0  0  0  0  0  0  0  0  0  0  0
   -8.9753    9.2675  -17.5310 C   0  0  0  0  0  0  0  0  0  0  0  0
   -8.9753   11.6420  -18.4570 C   0  0  1  0  0  0  0  0  0  0  0  0
   -7.8464   11.3890  -19.4567 C   0  0  0  0  0  0  0  0  0  0  0  0
  -10.1943   11.4296  -19.1711 O   0  0  0  0  0  0  0  0  0  0  0  0
  -11.8990   12.6031  -15.2666 C   0  0  0  0  0  0  0  0  0  0  0  0
  1  2  1  0
  2  3  1  0
  4  3  1  1
  4  5  1  0
  5  6  2  0
  6  7  1  0
  7  8  2  0
  8  9  1  0
  9 10  2  0
  4 11  1  0
 11 12  1  6
 12 13  1  0
 13 14  1  0
 14 15  1  6
 15 16  1  0
 16 17  1  0
 16 18  1  0
 16 19  1  0
 19 20  1  6
 19 21  1  0
 14 22  1  0
 10  5  1  0
 22 11  1  0
M  END
>  <CHROM.0>  (9) 
-177.93261992,179.14303028,-57.89597780,64.92211745,178.51215332,60.99230560
-177.52645501,68.59134392,80.49502950,64.07341174,179.08400695,-72.62310021
66.17186107,-177.80097771

>  <CHROM.1>  (9) 
154.52558067,-39.82473567,-33.51326251,-55.93097356,44.76775415,71.12046450
-177.07898480,174.40936793,-11.98743040,13.21137687,-15.49199946,3.12147651
-0.80310111,2.41449151

>  <Name>  (9) 
denovo_401

>  <RI>  (9) 
1.14584e+09

>  <Rbt.Current_Directory>  (9) 
/tmp/claude-0/-home-user-Rare-cancers/1af35c7f-7dc4-53ce-91d2-1631a2a10a85/scratchpad/smwork/cross/dock_8XTT-model2

>  <Rbt.Executable>  (9) 
rbdock - v25.07-alpha

>  <Rbt.Library>  (9) 
libRbt.so (25.07, Buildalpha)

>  <Rbt.Parameter_File>  (9) 
/tmp/claude-0/-home-user-Rare-cancers/1af35c7f-7dc4-53ce-91d2-1631a2a10a85/scratchpad/rdroot/share/rDock/data/scripts/dock.prm

>  <Rbt.Receptor>  (9) 
rec.prm

>  <SCORE>  (9) 
-13.6119

>  <SCORE.INTER>  (9) 
-14.6771

>  <SCORE.INTER.CONST>  (9) 
1

>  <SCORE.INTER.POLAR>  (9) 
-0.996803

>  <SCORE.INTER.REPUL>  (9) 
0.00338747

>  <SCORE.INTER.ROT>  (9) 
7

>  <SCORE.INTER.VDW>  (9) 
-23.7049

>  <SCORE.INTER.norm>  (9) 
-0.667141

>  <SCORE.INTRA>  (9) 
5.18534

>  <SCORE.INTRA.DIHEDRAL>  (9) 
2.87809

>  <SCORE.INTRA.DIHEDRAL.0>  (9) 
3.78927

>  <SCORE.INTRA.POLAR>  (9) 
0

>  <SCORE.INTRA.POLAR.0>  (9) 
0

>  <SCORE.INTRA.REPUL>  (9) 
0

>  <SCORE.INTRA.REPUL.0>  (9) 
0

>  <SCORE.INTRA.VDW>  (9) 
3.74629

>  <SCORE.INTRA.VDW.0>  (9) 
1.02728

>  <SCORE.INTRA.norm>  (9) 
0.235697

>  <SCORE.RESTR>  (9) 
0.0220699

>  <SCORE.RESTR.CAVITY>  (9) 
0.0220699

>  <SCORE.RESTR.norm>  (9) 
0.00100318

>  <SCORE.SYSTEM>  (9) 
-4.1422

>  <SCORE.SYSTEM.CONST>  (9) 
0

>  <SCORE.SYSTEM.DIHEDRAL>  (9) 
2.53753

>  <SCORE.SYSTEM.POLAR>  (9) 
-1.54833

>  <SCORE.SYSTEM.REPUL>  (9) 
0.655456

>  <SCORE.SYSTEM.VDW>  (9) 
-3.42393

>  <SCORE.SYSTEM.norm>  (9) 
-0.188282

>  <SCORE.heavy>  (9) 
22

>  <SCORE.norm>  (9) 
-0.618723

$$$$
denovo_401
     RDKit          3D

 22 23  0  0  0  0  0  0  0  0999 V2000
  -15.3398   13.7611  -11.1399 C   0  0  0  0  0  0  0  0  0  0  0  0
  -15.7102   13.7195  -12.5116 O   0  0  0  0  0  0  0  0  0  0  0  0
  -14.9329   12.7660  -13.2397 C   0  0  0  0  0  0  0  0  0  0  0  0
  -13.6094   13.4055  -13.7133 C   0  0  2  0  0  0  0  0  0  0  0  0
  -13.8694   14.8385  -14.1650 C   0  0  0  0  0  0  0  0  0  0  0  0
  -13.7647   15.1686  -15.5247 C   0  0  0  0  0  0  0  0  0  0  0  0
  -13.9959   16.4747  -15.9598 C   0  0  0  0  0  0  0  0  0  0  0  0
  -14.3333   17.4670  -15.0425 C   0  0  0  0  0  0  0  0  0  0  0  0
  -14.4397   17.1546  -13.6893 C   0  0  0  0  0  0  0  0  0  0  0  0
  -14.2086   15.8492  -13.2517 C   0  0  0  0  0  0  0  0  0  0  0  0
  -12.9027   12.5757  -14.8155 C   0  0  2  0  0  0  0  0  0  0  0  0
  -12.5241   11.1505  -14.3994 C   0  0  0  0  0  0  0  0  0  0  0  0
  -11.3258   10.7558  -15.2682 C   0  0  0  0  0  0  0  0  0  0  0  0
  -10.9268   12.0046  -16.0589 C   0  0  2  0  0  0  0  0  0  0  0  0
   -9.4184   12.2241  -16.2675 C   0  0  0  0  0  0  0  0  0  0  0  0
   -8.6867   11.3747  -17.3626 C   0  0  0  0  0  0  0  0  0  0  0  0
   -8.9970    9.8787  -17.1521 C   0  0  0  0  0  0  0  0  0  0  0  0
   -9.3015   11.7978  -18.7210 C   0  0  0  0  0  0  0  0  0  0  0  0
   -7.1438   11.6140  -17.3771 C   0  0  1  0  0  0  0  0  0  0  0  0
   -6.4271   11.3399  -16.0546 C   0  0  0  0  0  0  0  0  0  0  0  0
   -6.5071   10.7880  -18.3534 O   0  0  0  0  0  0  0  0  0  0  0  0
  -11.5491   13.1490  -15.2482 C   0  0  0  0  0  0  0  0  0  0  0  0
  1  2  1  0
  2  3  1  0
  4  3  1  6
  4  5  1  0
  5  6  2  0
  6  7  1  0
  7  8  2  0
  8  9  1  0
  9 10  2  0
  4 11  1  0
 11 12  1  1
 12 13  1  0
 13 14  1  0
 14 15  1  1
 15 16  1  0
 16 17  1  0
 16 18  1  0
 16 19  1  0
 19 20  1  1
 19 21  1  0
 14 22  1  0
 10  5  1  0
 22 11  1  0
M  END
>  <CHROM.0>  (10) 
32.46313867,57.89047843,-173.54851455,66.95048439,174.45152525,-61.58237927
-175.81114419,68.16338285,-161.85977621,-60.69959722,67.35481069,-178.13467918
68.30673085,62.37586339

>  <CHROM.1>  (10) 
-85.57384795,-39.31993655,-110.98159173,-60.04888347,77.60067288,-51.65721368
57.11927064,175.01489186,-11.73794921,13.06645295,-15.26032476,2.90271163
0.64537082,-0.40576884

>  <Name>  (10) 
denovo_401

>  <RI>  (10) 
1.14584e+09

>  <Rbt.Current_Directory>  (10) 
/tmp/claude-0/-home-user-Rare-cancers/1af35c7f-7dc4-53ce-91d2-1631a2a10a85/scratchpad/smwork/cross/dock_8XTT-model2

>  <Rbt.Executable>  (10) 
rbdock - v25.07-alpha

>  <Rbt.Library>  (10) 
libRbt.so (25.07, Buildalpha)

>  <Rbt.Parameter_File>  (10) 
/tmp/claude-0/-home-user-Rare-cancers/1af35c7f-7dc4-53ce-91d2-1631a2a10a85/scratchpad/rdroot/share/rDock/data/scripts/dock.prm

>  <Rbt.Receptor>  (10) 
rec.prm

>  <SCORE>  (10) 
-13.0891

>  <SCORE.INTER>  (10) 
-13.568

>  <SCORE.INTER.CONST>  (10) 
1

>  <SCORE.INTER.POLAR>  (10) 
-0.172095

>  <SCORE.INTER.REPUL>  (10) 
0

>  <SCORE.INTER.ROT>  (10) 
7

>  <SCORE.INTER.VDW>  (10) 
-25.3829

>  <SCORE.INTER.norm>  (10) 
-0.616727

>  <SCORE.INTRA>  (10) 
5.88459

>  <SCORE.INTRA.DIHEDRAL>  (10) 
3.00617

>  <SCORE.INTRA.DIHEDRAL.0>  (10) 
3.78927

>  <SCORE.INTRA.POLAR>  (10) 
0

>  <SCORE.INTRA.POLAR.0>  (10) 
0

>  <SCORE.INTRA.REPUL>  (10) 
0

>  <SCORE.INTRA.REPUL.0>  (10) 
0

>  <SCORE.INTRA.VDW>  (10) 
4.3815

>  <SCORE.INTRA.VDW.0>  (10) 
1.02728

>  <SCORE.INTRA.norm>  (10) 
0.267481

>  <SCORE.RESTR>  (10) 
0

>  <SCORE.RESTR.CAVITY>  (10) 
0

>  <SCORE.RESTR.norm>  (10) 
0

>  <SCORE.SYSTEM>  (10) 
-5.40566

>  <SCORE.SYSTEM.CONST>  (10) 
0

>  <SCORE.SYSTEM.DIHEDRAL>  (10) 
3.80711

>  <SCORE.SYSTEM.POLAR>  (10) 
-2.33606

>  <SCORE.SYSTEM.REPUL>  (10) 
0.340883

>  <SCORE.SYSTEM.VDW>  (10) 
-1.07105

>  <SCORE.SYSTEM.norm>  (10) 
-0.245712

>  <SCORE.heavy>  (10) 
22

>  <SCORE.norm>  (10) 
-0.594958

$$$$
denovo_401
     RDKit          3D

 22 23  0  0  0  0  0  0  0  0999 V2000
  -15.2898   13.6764  -11.2450 C   0  0  0  0  0  0  0  0  0  0  0  0
  -14.9047   12.5044  -11.9512 O   0  0  0  0  0  0  0  0  0  0  0  0
  -14.8957   12.7187  -13.3645 C   0  0  0  0  0  0  0  0  0  0  0  0
  -13.5579   13.3557  -13.7999 C   0  0  2  0  0  0  0  0  0  0  0  0
  -13.8074   14.7772  -14.2920 C   0  0  0  0  0  0  0  0  0  0  0  0
  -14.2544   15.7562  -13.3917 C   0  0  0  0  0  0  0  0  0  0  0  0
  -14.4916   17.0630  -13.8213 C   0  0  0  0  0  0  0  0  0  0  0  0
  -14.2865   17.4078  -15.1551 C   0  0  0  0  0  0  0  0  0  0  0  0
  -13.8442   16.4464  -16.0607 C   0  0  0  0  0  0  0  0  0  0  0  0
  -13.6065   15.1387  -15.6335 C   0  0  0  0  0  0  0  0  0  0  0  0
  -12.8046   12.5069  -14.8557 C   0  0  2  0  0  0  0  0  0  0  0  0
  -12.4724   11.0792  -14.4099 C   0  0  0  0  0  0  0  0  0  0  0  0
  -11.2342   10.6594  -15.2083 C   0  0  0  0  0  0  0  0  0  0  0  0
  -10.7722   11.8960  -15.9838 C   0  0  2  0  0  0  0  0  0  0  0  0
   -9.2513   12.0905  -16.1098 C   0  0  0  0  0  0  0  0  0  0  0  0
   -8.4783   11.2446  -17.1790 C   0  0  0  0  0  0  0  0  0  0  0  0
   -8.5611   11.9427  -18.5518 C   0  0  0  0  0  0  0  0  0  0  0  0
   -6.9923   11.2439  -16.7386 C   0  0  0  0  0  0  0  0  0  0  0  0
   -9.0057    9.7785  -17.2809 C   0  0  1  0  0  0  0  0  0  0  0  0
  -10.3230    9.6086  -18.0383 C   0  0  0  0  0  0  0  0  0  0  0  0
   -8.0567    8.9381  -17.9398 O   0  0  0  0  0  0  0  0  0  0  0  0
  -11.4202   13.0559  -15.2164 C   0  0  0  0  0  0  0  0  0  0  0  0
  1  2  1  0
  2  3  1  0
  4  3  1  6
  4  5  1  0
  5  6  2  0
  6  7  1  0
  7  8  2  0
  8  9  1  0
  9 10  2  0
  4 11  1  0
 11 12  1  1
 12 13  1  0
 13 14  1  0
 14 15  1  1
 15 16  1  0
 16 17  1  0
 16 18  1  0
 16 19  1  0
 19 20  1  6
 19 21  1  0
 14 22  1  0
 10  5  1  0
 22 11  1  0
M  END
>  <CHROM.0>  (11) 
32.01262608,173.54194934,-176.42787056,62.85851914,-69.70861288,-62.03455543
-177.05263592,69.97394169,-39.50936937,65.21504114,62.75116928,-67.81030281
-59.61450187,69.29977206

>  <CHROM.1>  (11) 
83.86299071,-112.76593894,65.89276972,-58.30215424,78.93085843,84.26179050
76.72097594,69.57128463,-11.86002491,12.75400071,-15.29610738,2.79724719
0.72884814,-0.37511508

>  <Name>  (11) 
denovo_401

>  <RI>  (11) 
1.14584e+09

>  <Rbt.Current_Directory>  (11) 
/tmp/claude-0/-home-user-Rare-cancers/1af35c7f-7dc4-53ce-91d2-1631a2a10a85/scratchpad/smwork/cross/dock_8XTT-model2

>  <Rbt.Executable>  (11) 
rbdock - v25.07-alpha

>  <Rbt.Library>  (11) 
libRbt.so (25.07, Buildalpha)

>  <Rbt.Parameter_File>  (11) 
/tmp/claude-0/-home-user-Rare-cancers/1af35c7f-7dc4-53ce-91d2-1631a2a10a85/scratchpad/rdroot/share/rDock/data/scripts/dock.prm

>  <Rbt.Receptor>  (11) 
rec.prm

>  <SCORE>  (11) 
-12.9973

>  <SCORE.INTER>  (11) 
-17.5361

>  <SCORE.INTER.CONST>  (11) 
1

>  <SCORE.INTER.POLAR>  (11) 
-0.419165

>  <SCORE.INTER.REPUL>  (11) 
0

>  <SCORE.INTER.ROT>  (11) 
7

>  <SCORE.INTER.VDW>  (11) 
-28.511

>  <SCORE.INTER.norm>  (11) 
-0.797097

>  <SCORE.INTRA>  (11) 
8.8922

>  <SCORE.INTRA.DIHEDRAL>  (11) 
9.42247

>  <SCORE.INTRA.DIHEDRAL.0>  (11) 
3.78927

>  <SCORE.INTRA.POLAR>  (11) 
0

>  <SCORE.INTRA.POLAR.0>  (11) 
0

>  <SCORE.INTRA.REPUL>  (11) 
0

>  <SCORE.INTRA.REPUL.0>  (11) 
0

>  <SCORE.INTRA.VDW>  (11) 
4.18096

>  <SCORE.INTRA.VDW.0>  (11) 
1.02728

>  <SCORE.INTRA.norm>  (11) 
0.404191

>  <SCORE.RESTR>  (11) 
0

>  <SCORE.RESTR.CAVITY>  (11) 
0

>  <SCORE.RESTR.norm>  (11) 
0

>  <SCORE.SYSTEM>  (11) 
-4.35336

>  <SCORE.SYSTEM.CONST>  (11) 
0

>  <SCORE.SYSTEM.DIHEDRAL>  (11) 
4.38163

>  <SCORE.SYSTEM.POLAR>  (11) 
-2.69946

>  <SCORE.SYSTEM.REPUL>  (11) 
0.536578

>  <SCORE.SYSTEM.VDW>  (11) 
-0.0488993

>  <SCORE.SYSTEM.norm>  (11) 
-0.19788

>  <SCORE.heavy>  (11) 
22

>  <SCORE.norm>  (11) 
-0.590787

$$$$
denovo_401
     RDKit          3D

 22 23  0  0  0  0  0  0  0  0999 V2000
   -6.5497    6.5450  -20.1885 C   0  0  0  0  0  0  0  0  0  0  0  0
   -6.6745    7.4214  -19.0764 O   0  0  0  0  0  0  0  0  0  0  0  0
   -5.7411    8.5016  -19.1481 C   0  0  0  0  0  0  0  0  0  0  0  0
   -5.8608    9.3955  -17.8944 C   0  0  2  0  0  0  0  0  0  0  0  0
   -7.1571   10.1957  -17.9617 C   0  0  0  0  0  0  0  0  0  0  0  0
   -8.1790    9.9431  -17.0339 C   0  0  0  0  0  0  0  0  0  0  0  0
   -9.3747   10.6620  -17.0789 C   0  0  0  0  0  0  0  0  0  0  0  0
   -9.5649   11.6409  -18.0514 C   0  0  0  0  0  0  0  0  0  0  0  0
   -8.5600   11.9018  -18.9799 C   0  0  0  0  0  0  0  0  0  0  0  0
   -7.3634   11.1840  -18.9371 C   0  0  0  0  0  0  0  0  0  0  0  0
   -4.6290   10.3145  -17.6928 C   0  0  2  0  0  0  0  0  0  0  0  0
   -4.7454   11.2918  -16.5185 C   0  0  0  0  0  0  0  0  0  0  0  0
   -3.8475   12.4838  -16.8640 C   0  0  0  0  0  0  0  0  0  0  0  0
   -3.3500   12.2584  -18.2944 C   0  0  2  0  0  0  0  0  0  0  0  0
   -3.2358   13.5113  -19.1798 C   0  0  0  0  0  0  0  0  0  0  0  0
   -1.9101   14.3453  -19.1227 C   0  0  0  0  0  0  0  0  0  0  0  0
   -0.7021   13.4164  -19.3612 C   0  0  0  0  0  0  0  0  0  0  0  0
   -1.9769   15.3458  -20.3045 C   0  0  0  0  0  0  0  0  0  0  0  0
   -1.7446   15.1190  -17.7767 C   0  0  1  0  0  0  0  0  0  0  0  0
   -0.5007   16.0029  -17.6792 C   0  0  0  0  0  0  0  0  0  0  0  0
   -2.8619   15.9769  -17.5389 O   0  0  0  0  0  0  0  0  0  0  0  0
   -4.3660   11.2619  -18.8681 C   0  0  0  0  0  0  0  0  0  0  0  0
  1  2  1  0
  2  3  1  0
  4  3  1  6
  4  5  1  0
  5  6  2  0
  6  7  1  0
  7  8  2  0
  8  9  1  0
  9 10  2  0
  4 11  1  0
 11 12  1  1
 12 13  1  0
 13 14  1  0
 14 15  1  6
 15 16  1  0
 16 17  1  0
 16 18  1  0
 16 19  1  0
 19 20  1  6
 19 21  1  0
 14 22  1  0
 10  5  1  0
 22 11  1  0
M  END
>  <CHROM.0>  (12) 
-163.02470179,-64.08161357,-59.88241088,64.77083803,-178.31772955,-63.51890629
-64.81362818,-51.21546896,-39.24637403,-172.26816632,-61.04143095,-73.54900922
70.30353137,-176.08055883

>  <CHROM.1>  (12) 
-177.41875180,-72.10085501,113.28169304,175.82220100,86.54701731,52.61231277
-177.40983454,-60.02417360,-4.86626038,11.79393392,-18.36476084,-2.39791866
0.25524468,0.26417243

>  <Name>  (12) 
denovo_401

>  <RI>  (12) 
1.14584e+09

>  <Rbt.Current_Directory>  (12) 
/tmp/claude-0/-home-user-Rare-cancers/1af35c7f-7dc4-53ce-91d2-1631a2a10a85/scratchpad/smwork/cross/dock_8XTT-model2

>  <Rbt.Executable>  (12) 
rbdock - v25.07-alpha

>  <Rbt.Library>  (12) 
libRbt.so (25.07, Buildalpha)

>  <Rbt.Parameter_File>  (12) 
/tmp/claude-0/-home-user-Rare-cancers/1af35c7f-7dc4-53ce-91d2-1631a2a10a85/scratchpad/rdroot/share/rDock/data/scripts/dock.prm

>  <Rbt.Receptor>  (12) 
rec.prm

>  <SCORE>  (12) 
-12.7676

>  <SCORE.INTER>  (12) 
-4.65178

>  <SCORE.INTER.CONST>  (12) 
1

>  <SCORE.INTER.POLAR>  (12) 
-0.54565

>  <SCORE.INTER.REPUL>  (12) 
0

>  <SCORE.INTER.ROT>  (12) 
7

>  <SCORE.INTER.VDW>  (12) 
-15.1966

>  <SCORE.INTER.norm>  (12) 
-0.211444

>  <SCORE.INTRA>  (12) 
1.75856

>  <SCORE.INTRA.DIHEDRAL>  (12) 
0.854442

>  <SCORE.INTRA.DIHEDRAL.0>  (12) 
3.78927

>  <SCORE.INTRA.POLAR>  (12) 
0

>  <SCORE.INTRA.POLAR.0>  (12) 
0

>  <SCORE.INTRA.REPUL>  (12) 
0

>  <SCORE.INTRA.REPUL.0>  (12) 
0

>  <SCORE.INTRA.VDW>  (12) 
1.33134

>  <SCORE.INTRA.VDW.0>  (12) 
1.02728

>  <SCORE.INTRA.norm>  (12) 
0.0799347

>  <SCORE.RESTR>  (12) 
0.0840307

>  <SCORE.RESTR.CAVITY>  (12) 
0.0840307

>  <SCORE.RESTR.norm>  (12) 
0.00381958

>  <SCORE.SYSTEM>  (12) 
-9.95843

>  <SCORE.SYSTEM.CONST>  (12) 
0

>  <SCORE.SYSTEM.DIHEDRAL>  (12) 
3.83588

>  <SCORE.SYSTEM.POLAR>  (12) 
-3.23449

>  <SCORE.SYSTEM.REPUL>  (12) 
0.023887

>  <SCORE.SYSTEM.VDW>  (12) 
-0.998551

>  <SCORE.SYSTEM.norm>  (12) 
-0.452656

>  <SCORE.heavy>  (12) 
22

>  <SCORE.norm>  (12) 
-0.580346

$$$$
denovo_401
     RDKit          3D

 22 23  0  0  0  0  0  0  0  0999 V2000
  -15.0492   17.7890  -14.5231 C   0  0  0  0  0  0  0  0  0  0  0  0
  -15.0132   16.4045  -14.8431 O   0  0  0  0  0  0  0  0  0  0  0  0
  -13.6963   15.9796  -15.2019 C   0  0  0  0  0  0  0  0  0  0  0  0
  -13.5688   14.4481  -15.0492 C   0  0  2  0  0  0  0  0  0  0  0  0
  -14.1094   14.0256  -13.6876 C   0  0  0  0  0  0  0  0  0  0  0  0
  -14.5613   12.7110  -13.4964 C   0  0  0  0  0  0  0  0  0  0  0  0
  -15.0625   12.3036  -12.2589 C   0  0  0  0  0  0  0  0  0  0  0  0
  -15.1195   13.2039  -11.1978 C   0  0  0  0  0  0  0  0  0  0  0  0
  -14.6758   14.5126  -11.3729 C   0  0  0  0  0  0  0  0  0  0  0  0
  -14.1744   14.9225  -12.6096 C   0  0  0  0  0  0  0  0  0  0  0  0
  -12.1214   13.9412  -15.2745 C   0  0  2  0  0  0  0  0  0  0  0  0
  -11.5114   14.3273  -16.6260 C   0  0  0  0  0  0  0  0  0  0  0  0
  -10.4629   13.2565  -16.9431 C   0  0  0  0  0  0  0  0  0  0  0  0
  -10.5885   12.1842  -15.8576 C   0  0  2  0  0  0  0  0  0  0  0  0
  -10.4006   10.7276  -16.3157 C   0  0  0  0  0  0  0  0  0  0  0  0
   -9.1710   10.3858  -17.2253 C   0  0  0  0  0  0  0  0  0  0  0  0
   -9.1429    8.8706  -17.5120 C   0  0  0  0  0  0  0  0  0  0  0  0
   -9.4115   11.1164  -18.5709 C   0  0  0  0  0  0  0  0  0  0  0  0
   -7.8159   10.8472  -16.6019 C   0  0  1  0  0  0  0  0  0  0  0  0
   -6.6158   10.8145  -17.5488 C   0  0  0  0  0  0  0  0  0  0  0  0
   -7.9052   12.1887  -16.1189 O   0  0  0  0  0  0  0  0  0  0  0  0
  -11.9980   12.4139  -15.2965 C   0  0  0  0  0  0  0  0  0  0  0  0
  1  2  1  0
  2  3  1  0
  4  3  1  1
  4  5  1  0
  5  6  2  0
  6  7  1  0
  7  8  2  0
  8  9  1  0
  9 10  2  0
  4 11  1  0
 11 12  1  6
 12 13  1  0
 13 14  1  0
 14 15  1  6
 15 16  1  0
 16 17  1  0
 16 18  1  0
 16 19  1  0
 19 20  1  6
 19 21  1  0
 14 22  1  0
 10  5  1  0
 22 11  1  0
M  END
>  <CHROM.0>  (13) 
-168.05853161,-167.46461336,-56.09641743,68.72693399,84.57552819,-64.07377741
68.07420242,-154.40553097,-28.88560326,-160.87153939,-58.54789200,-172.81508090
70.80825052,68.33670623

>  <CHROM.1>  (13) 
159.73639663,-48.67953898,156.43521767,-56.22059022,47.51338793,177.53773267
-167.74367297,178.56591081,-11.83949384,13.07057337,-15.25725910,-2.93660406
-0.72280849,2.62590539

>  <Name>  (13) 
denovo_401

>  <RI>  (13) 
1.14584e+09

>  <Rbt.Current_Directory>  (13) 
/tmp/claude-0/-home-user-Rare-cancers/1af35c7f-7dc4-53ce-91d2-1631a2a10a85/scratchpad/smwork/cross/dock_8XTT-model2

>  <Rbt.Executable>  (13) 
rbdock - v25.07-alpha

>  <Rbt.Library>  (13) 
libRbt.so (25.07, Buildalpha)

>  <Rbt.Parameter_File>  (13) 
/tmp/claude-0/-home-user-Rare-cancers/1af35c7f-7dc4-53ce-91d2-1631a2a10a85/scratchpad/rdroot/share/rDock/data/scripts/dock.prm

>  <Rbt.Receptor>  (13) 
rec.prm

>  <SCORE>  (13) 
-12.6744

>  <SCORE.INTER>  (13) 
-14.2522

>  <SCORE.INTER.CONST>  (13) 
1

>  <SCORE.INTER.POLAR>  (13) 
-0.566752

>  <SCORE.INTER.REPUL>  (13) 
0

>  <SCORE.INTER.ROT>  (13) 
7

>  <SCORE.INTER.VDW>  (13) 
-24.7253

>  <SCORE.INTER.norm>  (13) 
-0.647828

>  <SCORE.INTRA>  (13) 
6.74689

>  <SCORE.INTRA.DIHEDRAL>  (13) 
0.833873

>  <SCORE.INTRA.DIHEDRAL.0>  (13) 
3.78927

>  <SCORE.INTRA.POLAR>  (13) 
0

>  <SCORE.INTRA.POLAR.0>  (13) 
0

>  <SCORE.INTRA.REPUL>  (13) 
0

>  <SCORE.INTRA.REPUL.0>  (13) 
0

>  <SCORE.INTRA.VDW>  (13) 
6.32995

>  <SCORE.INTRA.VDW.0>  (13) 
1.02728

>  <SCORE.INTRA.norm>  (13) 
0.306677

>  <SCORE.RESTR>  (13) 
0

>  <SCORE.RESTR.CAVITY>  (13) 
0

>  <SCORE.RESTR.norm>  (13) 
0

>  <SCORE.SYSTEM>  (13) 
-5.16907

>  <SCORE.SYSTEM.CONST>  (13) 
0

>  <SCORE.SYSTEM.DIHEDRAL>  (13) 
11.5017

>  <SCORE.SYSTEM.POLAR>  (13) 
-2.9026

>  <SCORE.SYSTEM.REPUL>  (13) 
0.11661

>  <SCORE.SYSTEM.VDW>  (13) 
-1.63412

>  <SCORE.SYSTEM.norm>  (13) 
-0.234958

>  <SCORE.heavy>  (13) 
22

>  <SCORE.norm>  (13) 
-0.576109

$$$$
denovo_401
     RDKit          3D

 22 23  0  0  0  0  0  0  0  0999 V2000
  -16.1477   13.0071  -11.1847 C   0  0  0  0  0  0  0  0  0  0  0  0
  -14.9661   13.5306  -11.7765 O   0  0  0  0  0  0  0  0  0  0  0  0
  -14.6663   12.8857  -13.0165 C   0  0  0  0  0  0  0  0  0  0  0  0
  -13.4292   13.5372  -13.6723 C   0  0  2  0  0  0  0  0  0  0  0  0
  -13.7984   14.9227  -14.1910 C   0  0  0  0  0  0  0  0  0  0  0  0
  -13.5349   15.2575  -15.5279 C   0  0  0  0  0  0  0  0  0  0  0  0
  -13.8623   16.5211  -16.0229 C   0  0  0  0  0  0  0  0  0  0  0  0
  -14.4555   17.4657  -15.1889 C   0  0  0  0  0  0  0  0  0  0  0  0
  -14.7218   17.1482  -13.8590 C   0  0  0  0  0  0  0  0  0  0  0  0
  -14.3951   15.8854  -13.3616 C   0  0  0  0  0  0  0  0  0  0  0  0
  -12.8053   12.6557  -14.7842 C   0  0  2  0  0  0  0  0  0  0  0  0
  -12.5633   11.1967  -14.3835 C   0  0  0  0  0  0  0  0  0  0  0  0
  -11.4086   10.6992  -15.2585 C   0  0  0  0  0  0  0  0  0  0  0  0
  -10.8935   11.9127  -16.0370 C   0  0  2  0  0  0  0  0  0  0  0  0
   -9.3713   11.9903  -16.2460 C   0  0  0  0  0  0  0  0  0  0  0  0
   -8.7424   11.1971  -17.4425 C   0  0  0  0  0  0  0  0  0  0  0  0
   -7.2054   11.3134  -17.3914 C   0  0  0  0  0  0  0  0  0  0  0  0
   -9.1111    9.7087  -17.2165 C   0  0  0  0  0  0  0  0  0  0  0  0
   -9.2789   11.6755  -18.8286 C   0  0  1  0  0  0  0  0  0  0  0  0
   -9.2013   13.1825  -19.0751 C   0  0  0  0  0  0  0  0  0  0  0  0
   -8.5572   11.0598  -19.8968 O   0  0  0  0  0  0  0  0  0  0  0  0
  -11.4038   13.1025  -15.2135 C   0  0  0  0  0  0  0  0  0  0  0  0
  1  2  1  0
  2  3  1  0
  4  3  1  6
  4  5  1  0
  5  6  2  0
  6  7  1  0
  7  8  2  0
  8  9  1  0
  9 10  2  0
  4 11  1  0
 11 12  1  1
 12 13  1  0
 13 14  1  0
 14 15  1  1
 15 16  1  0
 16 17  1  0
 16 18  1  0
 16 19  1  0
 19 20  1  1
 19 21  1  0
 14 22  1  0
 10  5  1  0
 22 11  1  0
M  END
>  <CHROM.0>  (14) 
20.80845961,-63.28322447,-174.60018622,150.42463333,175.60784567,-63.62253391
-65.30972576,67.31454320,-36.04216399,67.64713933,178.30782670,-70.09012584
-177.01982227,179.58301976

>  <CHROM.1>  (14) 
176.51153400,-71.46184514,-126.78209239,-49.16350934,83.60312591,-175.06354733
51.45151066,-63.45676931,-11.96401635,13.09652078,-15.46573518,3.05690404
0.78396076,-0.52161930

>  <Name>  (14) 
denovo_401

>  <RI>  (14) 
1.14584e+09

>  <Rbt.Current_Directory>  (14) 
/tmp/claude-0/-home-user-Rare-cancers/1af35c7f-7dc4-53ce-91d2-1631a2a10a85/scratchpad/smwork/cross/dock_8XTT-model2

>  <Rbt.Executable>  (14) 
rbdock - v25.07-alpha

>  <Rbt.Library>  (14) 
libRbt.so (25.07, Buildalpha)

>  <Rbt.Parameter_File>  (14) 
/tmp/claude-0/-home-user-Rare-cancers/1af35c7f-7dc4-53ce-91d2-1631a2a10a85/scratchpad/rdroot/share/rDock/data/scripts/dock.prm

>  <Rbt.Receptor>  (14) 
rec.prm

>  <SCORE>  (14) 
-11.9235

>  <SCORE.INTER>  (14) 
-13.9597

>  <SCORE.INTER.CONST>  (14) 
1

>  <SCORE.INTER.POLAR>  (14) 
0

>  <SCORE.INTER.REPUL>  (14) 
0

>  <SCORE.INTER.ROT>  (14) 
7

>  <SCORE.INTER.VDW>  (14) 
-26.3597

>  <SCORE.INTER.norm>  (14) 
-0.634532

>  <SCORE.INTRA>  (14) 
3.91764

>  <SCORE.INTRA.DIHEDRAL>  (14) 
0.856244

>  <SCORE.INTRA.DIHEDRAL.0>  (14) 
3.78927

>  <SCORE.INTRA.POLAR>  (14) 
0

>  <SCORE.INTRA.POLAR.0>  (14) 
0

>  <SCORE.INTRA.REPUL>  (14) 
0

>  <SCORE.INTRA.REPUL.0>  (14) 
0

>  <SCORE.INTRA.VDW>  (14) 
3.48952

>  <SCORE.INTRA.VDW.0>  (14) 
1.02728

>  <SCORE.INTRA.norm>  (14) 
0.178075

>  <SCORE.RESTR>  (14) 
0.699838

>  <SCORE.RESTR.CAVITY>  (14) 
0.699838

>  <SCORE.RESTR.norm>  (14) 
0.0318108

>  <SCORE.SYSTEM>  (14) 
-2.58124

>  <SCORE.SYSTEM.CONST>  (14) 
0

>  <SCORE.SYSTEM.DIHEDRAL>  (14) 
6.92463

>  <SCORE.SYSTEM.POLAR>  (14) 
-1.99501

>  <SCORE.SYSTEM.REPUL>  (14) 
0.423344

>  <SCORE.SYSTEM.VDW>  (14) 
-1.37722

>  <SCORE.SYSTEM.norm>  (14) 
-0.117329

>  <SCORE.heavy>  (14) 
22

>  <SCORE.norm>  (14) 
-0.541975

$$$$
denovo_401
     RDKit          3D

 22 23  0  0  0  0  0  0  0  0999 V2000
  -14.9803   12.2173  -12.7035 C   0  0  0  0  0  0  0  0  0  0  0  0
  -15.1766   12.4429  -14.0931 O   0  0  0  0  0  0  0  0  0  0  0  0
  -13.9504   12.3482  -14.8218 C   0  0  0  0  0  0  0  0  0  0  0  0
  -12.9256   13.3676  -14.2781 C   0  0  2  0  0  0  0  0  0  0  0  0
  -13.4859   14.7784  -14.4214 C   0  0  0  0  0  0  0  0  0  0  0  0
  -14.0295   15.4275  -13.3024 C   0  0  0  0  0  0  0  0  0  0  0  0
  -14.5503   16.7181  -13.4116 C   0  0  0  0  0  0  0  0  0  0  0  0
  -14.5355   17.3756  -14.6394 C   0  0  0  0  0  0  0  0  0  0  0  0
  -14.0003   16.7434  -15.7593 C   0  0  0  0  0  0  0  0  0  0  0  0
  -13.4792   15.4527  -15.6526 C   0  0  0  0  0  0  0  0  0  0  0  0
  -11.5331   13.2327  -14.9455 C   0  0  2  0  0  0  0  0  0  0  0  0
  -11.4613   13.7501  -16.3859 C   0  0  0  0  0  0  0  0  0  0  0  0
  -10.3311   12.9698  -17.0644 C   0  0  0  0  0  0  0  0  0  0  0  0
   -9.8707   11.9057  -16.0645 C   0  0  2  0  0  0  0  0  0  0  0  0
   -9.4868   10.5382  -16.6556 C   0  0  0  0  0  0  0  0  0  0  0  0
   -8.2477   10.4617  -17.6122 C   0  0  0  0  0  0  0  0  0  0  0  0
   -7.0122   11.0611  -16.9099 C   0  0  0  0  0  0  0  0  0  0  0  0
   -7.9732    8.9542  -17.8453 C   0  0  0  0  0  0  0  0  0  0  0  0
   -8.4979   11.1763  -18.9777 C   0  0  1  0  0  0  0  0  0  0  0  0
   -9.8952   10.9866  -19.5687 C   0  0  0  0  0  0  0  0  0  0  0  0
   -8.3037   12.5868  -18.8602 O   0  0  0  0  0  0  0  0  0  0  0  0
  -11.0627   11.7832  -15.1062 C   0  0  0  0  0  0  0  0  0  0  0  0
  1  2  1  0
  2  3  1  0
  4  3  1  6
  4  5  1  0
  5  6  2  0
  6  7  1  0
  7  8  2  0
  8  9  1  0
  9 10  2  0
  4 11  1  0
 11 12  1  6
 12 13  1  0
 13 14  1  0
 14 15  1  6
 15 16  1  0
 16 17  1  0
 16 18  1  0
 16 19  1  0
 19 20  1  1
 19 21  1  0
 14 22  1  0
 10  5  1  0
 22 11  1  0
M  END
>  <CHROM.0>  (15) 
-169.39312785,-59.01093482,-59.88569143,67.16762304,175.29581972,-62.73092026
-64.44593521,68.47709978,82.08091200,-164.66741115,-172.08223707,-70.80378054
-177.42090575,68.12691213

>  <CHROM.1>  (15) 
-58.24333768,-59.85525940,101.52231838,73.45654288,64.72750399,54.57505012
-39.35623816,172.01710689,-11.53031424,12.93471792,-15.91692788,2.80120191
0.70597597,-0.32678770

>  <Name>  (15) 
denovo_401

>  <RI>  (15) 
1.14584e+09

>  <Rbt.Current_Directory>  (15) 
/tmp/claude-0/-home-user-Rare-cancers/1af35c7f-7dc4-53ce-91d2-1631a2a10a85/scratchpad/smwork/cross/dock_8XTT-model2

>  <Rbt.Executable>  (15) 
rbdock - v25.07-alpha

>  <Rbt.Library>  (15) 
libRbt.so (25.07, Buildalpha)

>  <Rbt.Parameter_File>  (15) 
/tmp/claude-0/-home-user-Rare-cancers/1af35c7f-7dc4-53ce-91d2-1631a2a10a85/scratchpad/rdroot/share/rDock/data/scripts/dock.prm

>  <Rbt.Receptor>  (15) 
rec.prm

>  <SCORE>  (15) 
-10.7359

>  <SCORE.INTER>  (15) 
-10.9709

>  <SCORE.INTER.CONST>  (15) 
1

>  <SCORE.INTER.POLAR>  (15) 
0

>  <SCORE.INTER.REPUL>  (15) 
0

>  <SCORE.INTER.ROT>  (15) 
7

>  <SCORE.INTER.VDW>  (15) 
-23.3709

>  <SCORE.INTER.norm>  (15) 
-0.498679

>  <SCORE.INTRA>  (15) 
7.50559

>  <SCORE.INTRA.DIHEDRAL>  (15) 
0.0334015

>  <SCORE.INTRA.DIHEDRAL.0>  (15) 
3.78927

>  <SCORE.INTRA.POLAR>  (15) 
0

>  <SCORE.INTRA.POLAR.0>  (15) 
0

>  <SCORE.INTRA.REPUL>  (15) 
0

>  <SCORE.INTRA.REPUL.0>  (15) 
0

>  <SCORE.INTRA.VDW>  (15) 
7.48889

>  <SCORE.INTRA.VDW.0>  (15) 
1.02728

>  <SCORE.INTRA.norm>  (15) 
0.341163

>  <SCORE.RESTR>  (15) 
0.500395

>  <SCORE.RESTR.CAVITY>  (15) 
0.500395

>  <SCORE.RESTR.norm>  (15) 
0.0227452

>  <SCORE.SYSTEM>  (15) 
-7.77093

>  <SCORE.SYSTEM.CONST>  (15) 
0

>  <SCORE.SYSTEM.DIHEDRAL>  (15) 
4.39247

>  <SCORE.SYSTEM.POLAR>  (15) 
-2.93266

>  <SCORE.SYSTEM.REPUL>  (15) 
0.423344

>  <SCORE.SYSTEM.VDW>  (15) 
-2.11284

>  <SCORE.SYSTEM.norm>  (15) 
-0.353224

>  <SCORE.heavy>  (15) 
22

>  <SCORE.norm>  (15) 
-0.487994

$$$$
denovo_401
     RDKit          3D

 22 23  0  0  0  0  0  0  0  0999 V2000
   -9.9130    9.1607  -17.9929 C   0  0  0  0  0  0  0  0  0  0  0  0
   -8.7625    8.7346  -17.2752 O   0  0  0  0  0  0  0  0  0  0  0  0
   -7.5551    9.1110  -17.9415 C   0  0  0  0  0  0  0  0  0  0  0  0
   -6.9498   10.3687  -17.2806 C   0  0  2  0  0  0  0  0  0  0  0  0
   -7.9944   11.4789  -17.2470 C   0  0  0  0  0  0  0  0  0  0  0  0
   -8.4449   11.9725  -16.0132 C   0  0  0  0  0  0  0  0  0  0  0  0
   -9.4026   12.9867  -15.9592 C   0  0  0  0  0  0  0  0  0  0  0  0
   -9.9228   13.5194  -17.1363 C   0  0  0  0  0  0  0  0  0  0  0  0
   -9.4862   13.0385  -18.3685 C   0  0  0  0  0  0  0  0  0  0  0  0
   -8.5288   12.0241  -18.4250 C   0  0  0  0  0  0  0  0  0  0  0  0
   -5.6393   10.8344  -17.9650 C   0  0  2  0  0  0  0  0  0  0  0  0
   -4.5664    9.7487  -18.0982 C   0  0  0  0  0  0  0  0  0  0  0  0
   -3.2211   10.4801  -18.1395 C   0  0  0  0  0  0  0  0  0  0  0  0
   -3.5168   11.9582  -17.8713 C   0  0  2  0  0  0  0  0  0  0  0  0
   -2.4869   12.7128  -17.0130 C   0  0  0  0  0  0  0  0  0  0  0  0
   -2.0669   14.1573  -17.4521 C   0  0  0  0  0  0  0  0  0  0  0  0
   -3.2342   15.1347  -17.2054 C   0  0  0  0  0  0  0  0  0  0  0  0
   -0.8997   14.5709  -16.5199 C   0  0  0  0  0  0  0  0  0  0  0  0
   -1.6081   14.2225  -18.9431 C   0  0  1  0  0  0  0  0  0  0  0  0
   -0.8261   15.4775  -19.3325 C   0  0  0  0  0  0  0  0  0  0  0  0
   -0.7685   13.1135  -19.2692 O   0  0  0  0  0  0  0  0  0  0  0  0
   -4.8915   11.9248  -17.1905 C   0  0  0  0  0  0  0  0  0  0  0  0
  1  2  1  0
  2  3  1  0
  4  3  1  6
  4  5  1  0
  5  6  2  0
  6  7  1  0
  7  8  2  0
  8  9  1  0
  9 10  2  0
  4 11  1  0
 11 12  1  1
 12 13  1  0
 13 14  1  0
 14 15  1  1
 15 16  1  0
 16 17  1  0
 16 18  1  0
 16 19  1  0
 19 20  1  1
 19 21  1  0
 14 22  1  0
 10  5  1  0
 22 11  1  0
M  END
>  <CHROM.0>  (16) 
-160.33092140,-64.52052812,-61.29074152,63.68983762,-68.38501784,-64.72793126
65.60884263,70.26374212,-40.85929398,-165.86425218,67.31672973,-71.28697553
-60.91689718,66.72380545

>  <CHROM.1>  (16) 
100.66935519,-54.56749786,116.98704614,-53.23993791,137.18782813,71.23905692
-163.60082028,-47.59646889,-5.39439293,12.11572515,-17.68514912,-2.75795248
0.15036270,0.13149174

>  <Name>  (16) 
denovo_401

>  <RI>  (16) 
1.14584e+09

>  <Rbt.Current_Directory>  (16) 
/tmp/claude-0/-home-user-Rare-cancers/1af35c7f-7dc4-53ce-91d2-1631a2a10a85/scratchpad/smwork/cross/dock_8XTT-model2

>  <Rbt.Executable>  (16) 
rbdock - v25.07-alpha

>  <Rbt.Library>  (16) 
libRbt.so (25.07, Buildalpha)

>  <Rbt.Parameter_File>  (16) 
/tmp/claude-0/-home-user-Rare-cancers/1af35c7f-7dc4-53ce-91d2-1631a2a10a85/scratchpad/rdroot/share/rDock/data/scripts/dock.prm

>  <Rbt.Receptor>  (16) 
rec.prm

>  <SCORE>  (16) 
-10.1869

>  <SCORE.INTER>  (16) 
-11.9347

>  <SCORE.INTER.CONST>  (16) 
1

>  <SCORE.INTER.POLAR>  (16) 
-0.8

>  <SCORE.INTER.REPUL>  (16) 
0

>  <SCORE.INTER.ROT>  (16) 
7

>  <SCORE.INTER.VDW>  (16) 
-21.6147

>  <SCORE.INTER.norm>  (16) 
-0.542488

>  <SCORE.INTRA>  (16) 
6.33069

>  <SCORE.INTRA.DIHEDRAL>  (16) 
10.2162

>  <SCORE.INTRA.DIHEDRAL.0>  (16) 
3.78927

>  <SCORE.INTRA.POLAR>  (16) 
0

>  <SCORE.INTRA.POLAR.0>  (16) 
0

>  <SCORE.INTRA.REPUL>  (16) 
0

>  <SCORE.INTRA.REPUL.0>  (16) 
0

>  <SCORE.INTRA.VDW>  (16) 
1.22258

>  <SCORE.INTRA.VDW.0>  (16) 
1.02728

>  <SCORE.INTRA.norm>  (16) 
0.287759

>  <SCORE.RESTR>  (16) 
0

>  <SCORE.RESTR.CAVITY>  (16) 
0

>  <SCORE.RESTR.norm>  (16) 
0

>  <SCORE.SYSTEM>  (16) 
-4.58284

>  <SCORE.SYSTEM.CONST>  (16) 
0

>  <SCORE.SYSTEM.DIHEDRAL>  (16) 
4.65027

>  <SCORE.SYSTEM.POLAR>  (16) 
-2.87201

>  <SCORE.SYSTEM.REPUL>  (16) 
0.498549

>  <SCORE.SYSTEM.VDW>  (16) 
0.364108

>  <SCORE.SYSTEM.norm>  (16) 
-0.208311

>  <SCORE.heavy>  (16) 
22

>  <SCORE.norm>  (16) 
-0.46304

$$$$
denovo_401
     RDKit          3D

 22 23  0  0  0  0  0  0  0  0999 V2000
   -8.3172    8.3827  -17.8196 C   0  0  0  0  0  0  0  0  0  0  0  0
   -6.9563    8.1315  -17.4953 O   0  0  0  0  0  0  0  0  0  0  0  0
   -6.0715    8.9620  -18.2508 C   0  0  0  0  0  0  0  0  0  0  0  0
   -5.8043   10.2830  -17.4967 C   0  0  2  0  0  0  0  0  0  0  0  0
   -7.0862   11.1071  -17.4438 C   0  0  0  0  0  0  0  0  0  0  0  0
   -7.7123   11.4963  -18.6376 C   0  0  0  0  0  0  0  0  0  0  0  0
   -8.8850   12.2531  -18.6124 C   0  0  0  0  0  0  0  0  0  0  0  0
   -9.4460   12.6314  -17.3949 C   0  0  0  0  0  0  0  0  0  0  0  0
   -8.8350   12.2535  -16.2015 C   0  0  0  0  0  0  0  0  0  0  0  0
   -7.6620   11.4969  -16.2243 C   0  0  0  0  0  0  0  0  0  0  0  0
   -4.6273   11.0910  -18.1003 C   0  0  2  0  0  0  0  0  0  0  0  0
   -3.3282   10.2970  -18.2726 C   0  0  0  0  0  0  0  0  0  0  0  0
   -2.1906   11.3211  -18.2150 C   0  0  0  0  0  0  0  0  0  0  0  0
   -2.8281   12.6653  -17.8532 C   0  0  2  0  0  0  0  0  0  0  0  0
   -2.0181   13.5695  -16.9081 C   0  0  0  0  0  0  0  0  0  0  0  0
   -1.4643   14.9248  -17.4672 C   0  0  0  0  0  0  0  0  0  0  0  0
   -0.7467   15.6963  -16.3408 C   0  0  0  0  0  0  0  0  0  0  0  0
   -0.4035   14.5518  -18.5339 C   0  0  0  0  0  0  0  0  0  0  0  0
   -2.5787   15.8102  -18.1091 C   0  0  1  0  0  0  0  0  0  0  0  0
   -3.2756   15.2030  -19.3272 C   0  0  0  0  0  0  0  0  0  0  0  0
   -3.6100   16.0997  -17.1639 O   0  0  0  0  0  0  0  0  0  0  0  0
   -4.1685   12.2620  -17.2248 C   0  0  0  0  0  0  0  0  0  0  0  0
  1  2  1  0
  2  3  1  0
  4  3  1  6
  4  5  1  0
  5  6  2  0
  6  7  1  0
  7  8  2  0
  8  9  1  0
  9 10  2  0
  4 11  1  0
 11 12  1  1
 12 13  1  0
 13 14  1  0
 14 15  1  1
 15 16  1  0
 16 17  1  0
 16 18  1  0
 16 19  1  0
 19 20  1  6
 19 21  1  0
 14 22  1  0
 10  5  1  0
 22 11  1  0
M  END
>  <CHROM.0>  (17) 
32.45602256,178.23887352,-175.39872723,66.76163018,-178.65051649,-63.27354281
-63.50940687,68.07074483,-158.00202326,66.75976010,-174.08835345,-179.15068312
-177.67010578,62.68765576

>  <CHROM.1>  (17) 
89.86863515,-67.37775024,-59.07577654,-52.23208187,113.74330906,177.32626129
-62.53200243,174.00928174,-4.85095321,12.31540118,-17.69013307,-2.48986944
0.08030827,0.08800074

>  <Name>  (17) 
denovo_401

>  <RI>  (17) 
1.14584e+09

>  <Rbt.Current_Directory>  (17) 
/tmp/claude-0/-home-user-Rare-cancers/1af35c7f-7dc4-53ce-91d2-1631a2a10a85/scratchpad/smwork/cross/dock_8XTT-model2

>  <Rbt.Executable>  (17) 
rbdock - v25.07-alpha

>  <Rbt.Library>  (17) 
libRbt.so (25.07, Buildalpha)

>  <Rbt.Parameter_File>  (17) 
/tmp/claude-0/-home-user-Rare-cancers/1af35c7f-7dc4-53ce-91d2-1631a2a10a85/scratchpad/rdroot/share/rDock/data/scripts/dock.prm

>  <Rbt.Receptor>  (17) 
rec.prm

>  <SCORE>  (17) 
-9.8972

>  <SCORE.INTER>  (17) 
-9.22861

>  <SCORE.INTER.CONST>  (17) 
1

>  <SCORE.INTER.POLAR>  (17) 
0

>  <SCORE.INTER.REPUL>  (17) 
0

>  <SCORE.INTER.ROT>  (17) 
7

>  <SCORE.INTER.VDW>  (17) 
-21.6286

>  <SCORE.INTER.norm>  (17) 
-0.419482

>  <SCORE.INTRA>  (17) 
5.82832

>  <SCORE.INTRA.DIHEDRAL>  (17) 
7.86618

>  <SCORE.INTRA.DIHEDRAL.0>  (17) 
3.78927

>  <SCORE.INTRA.POLAR>  (17) 
0

>  <SCORE.INTRA.POLAR.0>  (17) 
0

>  <SCORE.INTRA.REPUL>  (17) 
0

>  <SCORE.INTRA.REPUL.0>  (17) 
0

>  <SCORE.INTRA.VDW>  (17) 
1.89523

>  <SCORE.INTRA.VDW.0>  (17) 
1.02728

>  <SCORE.INTRA.norm>  (17) 
0.264924

>  <SCORE.RESTR>  (17) 
0.00709406

>  <SCORE.RESTR.CAVITY>  (17) 
0.00709406

>  <SCORE.RESTR.norm>  (17) 
0.000322457

>  <SCORE.SYSTEM>  (17) 
-6.50397

>  <SCORE.SYSTEM.CONST>  (17) 
0

>  <SCORE.SYSTEM.DIHEDRAL>  (17) 
3.68385

>  <SCORE.SYSTEM.POLAR>  (17) 
-2.40213

>  <SCORE.SYSTEM.REPUL>  (17) 
0.423344

>  <SCORE.SYSTEM.VDW>  (17) 
-2.29537

>  <SCORE.SYSTEM.norm>  (17) 
-0.295635

>  <SCORE.heavy>  (17) 
22

>  <SCORE.norm>  (17) 
-0.449871

$$$$
denovo_401
     RDKit          3D

 22 23  0  0  0  0  0  0  0  0999 V2000
   -7.4191    7.5513  -19.6466 C   0  0  0  0  0  0  0  0  0  0  0  0
   -7.6466    8.0096  -18.3205 O   0  0  0  0  0  0  0  0  0  0  0  0
   -8.5181    9.1423  -18.2955 C   0  0  0  0  0  0  0  0  0  0  0  0
   -8.1732   10.0557  -17.0989 C   0  0  2  0  0  0  0  0  0  0  0  0
   -8.9462   11.3647  -17.2184 C   0  0  0  0  0  0  0  0  0  0  0  0
   -9.0260   12.0142  -18.4595 C   0  0  0  0  0  0  0  0  0  0  0  0
   -9.7261   13.2147  -18.5908 C   0  0  0  0  0  0  0  0  0  0  0  0
  -10.3539   13.7817  -17.4844 C   0  0  0  0  0  0  0  0  0  0  0  0
  -10.2823   13.1491  -16.2454 C   0  0  0  0  0  0  0  0  0  0  0  0
   -9.5825   11.9485  -16.1116 C   0  0  0  0  0  0  0  0  0  0  0  0
   -6.6499   10.3004  -16.9504 C   0  0  2  0  0  0  0  0  0  0  0  0
   -6.2689   11.3337  -15.8851 C   0  0  0  0  0  0  0  0  0  0  0  0
   -4.9209   11.9178  -16.3191 C   0  0  0  0  0  0  0  0  0  0  0  0
   -4.6156   11.3364  -17.7022 C   0  0  2  0  0  0  0  0  0  0  0  0
   -3.9394   12.2870  -18.7052 C   0  0  0  0  0  0  0  0  0  0  0  0
   -2.3951   12.5234  -18.5822 C   0  0  0  0  0  0  0  0  0  0  0  0
   -2.0572   13.0165  -17.1604 C   0  0  0  0  0  0  0  0  0  0  0  0
   -1.7285   11.1371  -18.7720 C   0  0  0  0  0  0  0  0  0  0  0  0
   -1.8540   13.5266  -19.6493 C   0  0  1  0  0  0  0  0  0  0  0  0
   -2.3148   14.9745  -19.4786 C   0  0  0  0  0  0  0  0  0  0  0  0
   -0.4258   13.5601  -19.6424 O   0  0  0  0  0  0  0  0  0  0  0  0
   -5.9923   10.8831  -18.2058 C   0  0  0  0  0  0  0  0  0  0  0  0
  1  2  1  0
  2  3  1  0
  4  3  1  6
  4  5  1  0
  5  6  2  0
  6  7  1  0
  7  8  2  0
  8  9  1  0
  9 10  2  0
  4 11  1  0
 11 12  1  1
 12 13  1  0
 13 14  1  0
 14 15  1  6
 15 16  1  0
 16 17  1  0
 16 18  1  0
 16 19  1  0
 19 20  1  1
 19 21  1  0
 14 22  1  0
 10  5  1  0
 22 11  1  0
M  END
>  <CHROM.0>  (18) 
-162.13709582,53.25570654,-175.58244554,65.82078131,-66.66316459,-63.76612107
-176.35766526,-51.21954596,-157.18322471,-61.11231380,-61.63822689,-179.09683194
70.21583497,66.99656386

>  <CHROM.1>  (18) 
-149.34002930,170.56517628,-43.92815588,172.92662189,79.65946260,-55.68915580
68.19417552,-42.83030486,-5.90946420,11.66023148,-17.97083515,-2.90677776
0.21917513,0.14414973

>  <Name>  (18) 
denovo_401

>  <RI>  (18) 
1.14584e+09

>  <Rbt.Current_Directory>  (18) 
/tmp/claude-0/-home-user-Rare-cancers/1af35c7f-7dc4-53ce-91d2-1631a2a10a85/scratchpad/smwork/cross/dock_8XTT-model2

>  <Rbt.Executable>  (18) 
rbdock - v25.07-alpha

>  <Rbt.Library>  (18) 
libRbt.so (25.07, Buildalpha)

>  <Rbt.Parameter_File>  (18) 
/tmp/claude-0/-home-user-Rare-cancers/1af35c7f-7dc4-53ce-91d2-1631a2a10a85/scratchpad/rdroot/share/rDock/data/scripts/dock.prm

>  <Rbt.Receptor>  (18) 
rec.prm

>  <SCORE>  (18) 
-8.0987

>  <SCORE.INTER>  (18) 
-7.3869

>  <SCORE.INTER.CONST>  (18) 
1

>  <SCORE.INTER.POLAR>  (18) 
-0.593591

>  <SCORE.INTER.REPUL>  (18) 
0

>  <SCORE.INTER.ROT>  (18) 
7

>  <SCORE.INTER.VDW>  (18) 
-17.7687

>  <SCORE.INTER.norm>  (18) 
-0.335768

>  <SCORE.INTRA>  (18) 
4.84063

>  <SCORE.INTRA.DIHEDRAL>  (18) 
4.46681

>  <SCORE.INTRA.DIHEDRAL.0>  (18) 
3.78927

>  <SCORE.INTRA.POLAR>  (18) 
0

>  <SCORE.INTRA.POLAR.0>  (18) 
0

>  <SCORE.INTRA.REPUL>  (18) 
0

>  <SCORE.INTRA.REPUL.0>  (18) 
0

>  <SCORE.INTRA.VDW>  (18) 
2.60722

>  <SCORE.INTRA.VDW.0>  (18) 
1.02728

>  <SCORE.INTRA.norm>  (18) 
0.220028

>  <SCORE.RESTR>  (18) 
0.542239

>  <SCORE.RESTR.CAVITY>  (18) 
0.542239

>  <SCORE.RESTR.norm>  (18) 
0.0246472

>  <SCORE.SYSTEM>  (18) 
-6.09466

>  <SCORE.SYSTEM.CONST>  (18) 
0

>  <SCORE.SYSTEM.DIHEDRAL>  (18) 
3.45194

>  <SCORE.SYSTEM.POLAR>  (18) 
-2.77586

>  <SCORE.SYSTEM.REPUL>  (18) 
0.468268

>  <SCORE.SYSTEM.VDW>  (18) 
-0.724042

>  <SCORE.SYSTEM.norm>  (18) 
-0.27703

>  <SCORE.heavy>  (18) 
22

>  <SCORE.norm>  (18) 
-0.368122

$$$$
denovo_401
     RDKit          3D

 22 23  0  0  0  0  0  0  0  0999 V2000
    0.9583   11.6744  -20.3654 C   0  0  0  0  0  0  0  0  0  0  0  0
   -0.3223   12.2672  -20.1945 O   0  0  0  0  0  0  0  0  0  0  0  0
   -1.2723   11.3322  -19.6782 C   0  0  0  0  0  0  0  0  0  0  0  0
   -2.6537   12.0048  -19.5225 C   0  0  2  0  0  0  0  0  0  0  0  0
   -2.5538   13.1462  -18.5164 C   0  0  0  0  0  0  0  0  0  0  0  0
   -2.8985   14.4491  -18.9065 C   0  0  0  0  0  0  0  0  0  0  0  0
   -2.8119   15.5092  -18.0024 C   0  0  0  0  0  0  0  0  0  0  0  0
   -2.3790   15.2813  -16.6983 C   0  0  0  0  0  0  0  0  0  0  0  0
   -2.0321   13.9934  -16.2969 C   0  0  0  0  0  0  0  0  0  0  0  0
   -2.1176   12.9317  -17.1994 C   0  0  0  0  0  0  0  0  0  0  0  0
   -3.7708   11.0001  -19.1414 C   0  0  2  0  0  0  0  0  0  0  0  0
   -4.1341    9.9992  -20.2432 C   0  0  0  0  0  0  0  0  0  0  0  0
   -5.5882    9.5912  -19.9872 C   0  0  0  0  0  0  0  0  0  0  0  0
   -6.0970   10.4736  -18.8442 C   0  0  2  0  0  0  0  0  0  0  0  0
   -7.5566   10.9481  -18.9495 C   0  0  0  0  0  0  0  0  0  0  0  0
   -8.4340   10.9518  -17.6509 C   0  0  0  0  0  0  0  0  0  0  0  0
   -7.5748   11.3846  -16.4454 C   0  0  0  0  0  0  0  0  0  0  0  0
   -9.5227   12.0336  -17.8672 C   0  0  0  0  0  0  0  0  0  0  0  0
   -9.1033    9.5686  -17.3740 C   0  0  1  0  0  0  0  0  0  0  0  0
  -10.2981    9.2300  -18.2660 C   0  0  0  0  0  0  0  0  0  0  0  0
   -8.1660    8.5037  -17.5430 O   0  0  0  0  0  0  0  0  0  0  0  0
   -5.1238   11.6598  -18.8546 C   0  0  0  0  0  0  0  0  0  0  0  0
  1  2  1  0
  2  3  1  0
  4  3  1  1
  4  5  1  0
  5  6  2  0
  6  7  1  0
  7  8  2  0
  8  9  1  0
  9 10  2  0
  4 11  1  0
 11 12  1  6
 12 13  1  0
 13 14  1  0
 14 15  1  6
 15 16  1  0
 16 17  1  0
 16 18  1  0
 16 19  1  0
 19 20  1  6
 19 21  1  0
 14 22  1  0
 10  5  1  0
 22 11  1  0
M  END
>  <CHROM.0>  (19) 
-158.03833396,177.19249041,-58.99805802,66.25473885,-69.22486857,-65.33344271
-63.32586886,-50.29398761,-156.71034664,-167.90171579,-62.74409834,-71.18589764
-62.87489804,67.48656358

>  <CHROM.1>  (19) 
-179.28534737,-62.35828537,121.74239088,-68.54478917,139.03436886,37.72417241
-75.35012250,55.24497547,-4.74814469,11.65192565,-18.49582299,-0.24519314
-0.31648772,-2.56297481

>  <Name>  (19) 
denovo_401

>  <RI>  (19) 
1.14584e+09

>  <Rbt.Current_Directory>  (19) 
/tmp/claude-0/-home-user-Rare-cancers/1af35c7f-7dc4-53ce-91d2-1631a2a10a85/scratchpad/smwork/cross/dock_8XTT-model2

>  <Rbt.Executable>  (19) 
rbdock - v25.07-alpha

>  <Rbt.Library>  (19) 
libRbt.so (25.07, Buildalpha)

>  <Rbt.Parameter_File>  (19) 
/tmp/claude-0/-home-user-Rare-cancers/1af35c7f-7dc4-53ce-91d2-1631a2a10a85/scratchpad/rdroot/share/rDock/data/scripts/dock.prm

>  <Rbt.Receptor>  (19) 
rec.prm

>  <SCORE>  (19) 
-7.9387

>  <SCORE.INTER>  (19) 
-5.09653

>  <SCORE.INTER.CONST>  (19) 
1

>  <SCORE.INTER.POLAR>  (19) 
0

>  <SCORE.INTER.REPUL>  (19) 
0

>  <SCORE.INTER.ROT>  (19) 
7

>  <SCORE.INTER.VDW>  (19) 
-17.4965

>  <SCORE.INTER.norm>  (19) 
-0.23166

>  <SCORE.INTRA>  (19) 
3.93793

>  <SCORE.INTRA.DIHEDRAL>  (19) 
6.20009

>  <SCORE.INTRA.DIHEDRAL.0>  (19) 
3.78927

>  <SCORE.INTRA.POLAR>  (19) 
0

>  <SCORE.INTRA.POLAR.0>  (19) 
0

>  <SCORE.INTRA.REPUL>  (19) 
0

>  <SCORE.INTRA.REPUL.0>  (19) 
0

>  <SCORE.INTRA.VDW>  (19) 
0.837889

>  <SCORE.INTRA.VDW.0>  (19) 
1.02728

>  <SCORE.INTRA.norm>  (19) 
0.178997

>  <SCORE.RESTR>  (19) 
0.966327

>  <SCORE.RESTR.CAVITY>  (19) 
0.966327

>  <SCORE.RESTR.norm>  (19) 
0.043924

>  <SCORE.SYSTEM>  (19) 
-7.74639

>  <SCORE.SYSTEM.CONST>  (19) 
0

>  <SCORE.SYSTEM.DIHEDRAL>  (19) 
4.77485

>  <SCORE.SYSTEM.POLAR>  (19) 
-3.36839

>  <SCORE.SYSTEM.REPUL>  (19) 
0.246964

>  <SCORE.SYSTEM.VDW>  (19) 
0.0838796

>  <SCORE.SYSTEM.norm>  (19) 
-0.352109

>  <SCORE.heavy>  (19) 
22

>  <SCORE.norm>  (19) 
-0.360848

$$$$
denovo_401
     RDKit          3D

 22 23  0  0  0  0  0  0  0  0999 V2000
  -15.2311   18.0773  -14.6685 C   0  0  0  0  0  0  0  0  0  0  0  0
  -15.6304   16.7444  -14.3778 O   0  0  0  0  0  0  0  0  0  0  0  0
  -14.5109   15.9167  -14.0538 C   0  0  0  0  0  0  0  0  0  0  0  0
  -14.9881   14.4995  -13.6679 C   0  0  2  0  0  0  0  0  0  0  0  0
  -14.9015   14.3276  -12.1553 C   0  0  0  0  0  0  0  0  0  0  0  0
  -15.7660   13.4326  -11.5067 C   0  0  0  0  0  0  0  0  0  0  0  0
  -15.7057   13.2617  -10.1226 C   0  0  0  0  0  0  0  0  0  0  0  0
  -14.7825   13.9829   -9.3693 C   0  0  0  0  0  0  0  0  0  0  0  0
  -13.9187   14.8760   -9.9991 C   0  0  0  0  0  0  0  0  0  0  0  0
  -13.9773   15.0489  -11.3831 C   0  0  0  0  0  0  0  0  0  0  0  0
  -14.2182   13.3823  -14.4174 C   0  0  2  0  0  0  0  0  0  0  0  0
  -14.1083   12.0584  -13.6539 C   0  0  0  0  0  0  0  0  0  0  0  0
  -12.8411   11.3706  -14.1714 C   0  0  0  0  0  0  0  0  0  0  0  0
  -12.1508   12.3680  -15.1056 C   0  0  2  0  0  0  0  0  0  0  0  0
  -10.6135   12.3960  -15.0540 C   0  0  0  0  0  0  0  0  0  0  0  0
   -9.8230   12.4058  -16.4072 C   0  0  0  0  0  0  0  0  0  0  0  0
   -9.9902   13.7757  -17.0959 C   0  0  0  0  0  0  0  0  0  0  0  0
   -8.3269   12.2437  -16.0357 C   0  0  0  0  0  0  0  0  0  0  0  0
  -10.2621   11.2562  -17.3680 C   0  0  1  0  0  0  0  0  0  0  0  0
   -9.5454   11.2226  -18.7182 C   0  0  0  0  0  0  0  0  0  0  0  0
  -10.0434    9.9775  -16.7696 O   0  0  0  0  0  0  0  0  0  0  0  0
  -12.7467   13.7173  -14.6832 C   0  0  0  0  0  0  0  0  0  0  0  0
  1  2  1  0
  2  3  1  0
  4  3  1  1
  4  5  1  0
  5  6  2  0
  6  7  1  0
  7  8  2  0
  8  9  1  0
  9 10  2  0
  4 11  1  0
 11 12  1  1
 12 13  1  0
 13 14  1  0
 14 15  1  1
 15 16  1  0
 16 17  1  0
 16 18  1  0
 16 19  1  0
 19 20  1  6
 19 21  1  0
 14 22  1  0
 10  5  1  0
 22 11  1  0
M  END
>  <CHROM.0>  (20) 
174.63416240,-69.31733513,-173.62337908,63.59280304,175.53244182,-65.65270137
-174.43121580,66.31939621,81.03023942,-163.59976811,-60.27984325,-71.46406174
-59.33050089,65.60772254

>  <CHROM.1>  (20) 
176.85145370,-104.34273781,152.41896034,151.11617334,134.01002769,71.19670340
179.01016380,69.70245009,-12.85176161,13.45996993,-14.22977230,2.97699261
-0.84523776,2.34734935

>  <Name>  (20) 
denovo_401

>  <RI>  (20) 
1.14584e+09

>  <Rbt.Current_Directory>  (20) 
/tmp/claude-0/-home-user-Rare-cancers/1af35c7f-7dc4-53ce-91d2-1631a2a10a85/scratchpad/smwork/cross/dock_8XTT-model2

>  <Rbt.Executable>  (20) 
rbdock - v25.07-alpha

>  <Rbt.Library>  (20) 
libRbt.so (25.07, Buildalpha)

>  <Rbt.Parameter_File>  (20) 
/tmp/claude-0/-home-user-Rare-cancers/1af35c7f-7dc4-53ce-91d2-1631a2a10a85/scratchpad/rdroot/share/rDock/data/scripts/dock.prm

>  <Rbt.Receptor>  (20) 
rec.prm

>  <SCORE>  (20) 
-7.5615

>  <SCORE.INTER>  (20) 
-7.99616

>  <SCORE.INTER.CONST>  (20) 
1

>  <SCORE.INTER.POLAR>  (20) 
-1.05917

>  <SCORE.INTER.REPUL>  (20) 
0

>  <SCORE.INTER.ROT>  (20) 
7

>  <SCORE.INTER.VDW>  (20) 
-16.795

>  <SCORE.INTER.norm>  (20) 
-0.363462

>  <SCORE.INTRA>  (20) 
8.25572

>  <SCORE.INTRA.DIHEDRAL>  (20) 
10.7336

>  <SCORE.INTRA.DIHEDRAL.0>  (20) 
3.78927

>  <SCORE.INTRA.POLAR>  (20) 
0

>  <SCORE.INTRA.POLAR.0>  (20) 
0

>  <SCORE.INTRA.REPUL>  (20) 
0

>  <SCORE.INTRA.REPUL.0>  (20) 
0

>  <SCORE.INTRA.VDW>  (20) 
2.88893

>  <SCORE.INTRA.VDW.0>  (20) 
1.02728

>  <SCORE.INTRA.norm>  (20) 
0.37526

>  <SCORE.RESTR>  (20) 
0.0100727

>  <SCORE.RESTR.CAVITY>  (20) 
0.0100727

>  <SCORE.RESTR.norm>  (20) 
0.000457851

>  <SCORE.SYSTEM>  (20) 
-7.8311

>  <SCORE.SYSTEM.CONST>  (20) 
0

>  <SCORE.SYSTEM.DIHEDRAL>  (20) 
4.12531

>  <SCORE.SYSTEM.POLAR>  (20) 
-3.00665

>  <SCORE.SYSTEM.REPUL>  (20) 
0.194769

>  <SCORE.SYSTEM.VDW>  (20) 
-0.644982

>  <SCORE.SYSTEM.norm>  (20) 
-0.355959

>  <SCORE.heavy>  (20) 
22

>  <SCORE.norm>  (20) 
-0.343703

$$$$
denovo_401
     RDKit          3D

 22 23  0  0  0  0  0  0  0  0999 V2000
  -15.5340   18.0336  -14.6166 C   0  0  0  0  0  0  0  0  0  0  0  0
  -15.3813   16.6232  -14.7062 O   0  0  0  0  0  0  0  0  0  0  0  0
  -14.0302   16.2557  -14.9937 C   0  0  0  0  0  0  0  0  0  0  0  0
  -13.8470   14.7300  -14.8393 C   0  0  2  0  0  0  0  0  0  0  0  0
  -14.3122   14.2992  -13.4526 C   0  0  0  0  0  0  0  0  0  0  0  0
  -14.7993   12.9981  -13.2558 C   0  0  0  0  0  0  0  0  0  0  0  0
  -15.2329   12.5836  -11.9953 C   0  0  0  0  0  0  0  0  0  0  0  0
  -15.1864   13.4634  -10.9165 C   0  0  0  0  0  0  0  0  0  0  0  0
  -14.7066   14.7586  -11.0969 C   0  0  0  0  0  0  0  0  0  0  0  0
  -14.2728   15.1755  -12.3566 C   0  0  0  0  0  0  0  0  0  0  0  0
  -12.3957   14.2678  -15.1269 C   0  0  2  0  0  0  0  0  0  0  0  0
  -11.8356   14.7223  -16.4787 C   0  0  0  0  0  0  0  0  0  0  0  0
  -10.7726   13.6908  -16.8695 C   0  0  0  0  0  0  0  0  0  0  0  0
  -10.8408   12.5732  -15.8252 C   0  0  2  0  0  0  0  0  0  0  0  0
  -10.6331   11.1411  -16.3475 C   0  0  0  0  0  0  0  0  0  0  0  0
   -9.3155   10.8184  -17.1323 C   0  0  0  0  0  0  0  0  0  0  0  0
   -8.1231   11.5272  -16.4579 C   0  0  0  0  0  0  0  0  0  0  0  0
   -9.0943    9.2903  -16.9970 C   0  0  0  0  0  0  0  0  0  0  0  0
   -9.4021   11.2139  -18.6402 C   0  0  1  0  0  0  0  0  0  0  0  0
   -9.1848   12.6973  -18.9407 C   0  0  0  0  0  0  0  0  0  0  0  0
   -8.4307   10.5052  -19.4117 O   0  0  0  0  0  0  0  0  0  0  0  0
  -12.2378   12.7461  -15.2146 C   0  0  0  0  0  0  0  0  0  0  0  0
  1  2  1  0
  2  3  1  0
  4  3  1  1
  4  5  1  0
  5  6  2  0
  6  7  1  0
  7  8  2  0
  8  9  1  0
  9 10  2  0
  4 11  1  0
 11 12  1  6
 12 13  1  0
 13 14  1  0
 14 15  1  6
 15 16  1  0
 16 17  1  0
 16 18  1  0
 16 19  1  0
 19 20  1  1
 19 21  1  0
 14 22  1  0
 10  5  1  0
 22 11  1  0
M  END
>  <CHROM.0>  (21) 
33.33977080,-76.34403758,-58.89620435,67.79076446,-179.93721446,-66.34522857
-67.37072710,68.87567998,-33.62583859,-60.82992371,-61.01721523,178.06066522
-179.78039302,66.81084629

>  <CHROM.1>  (21) 
170.07469409,-54.44893233,152.08035200,-53.40150222,56.23663173,40.32869864
79.88857856,71.04556461,-12.18480975,13.35838112,-15.35833783,-3.12248555
-0.82568975,2.45796780

>  <Name>  (21) 
denovo_401

>  <RI>  (21) 
1.14584e+09

>  <Rbt.Current_Directory>  (21) 
/tmp/claude-0/-home-user-Rare-cancers/1af35c7f-7dc4-53ce-91d2-1631a2a10a85/scratchpad/smwork/cross/dock_8XTT-model2

>  <Rbt.Executable>  (21) 
rbdock - v25.07-alpha

>  <Rbt.Library>  (21) 
libRbt.so (25.07, Buildalpha)

>  <Rbt.Parameter_File>  (21) 
/tmp/claude-0/-home-user-Rare-cancers/1af35c7f-7dc4-53ce-91d2-1631a2a10a85/scratchpad/rdroot/share/rDock/data/scripts/dock.prm

>  <Rbt.Receptor>  (21) 
rec.prm

>  <SCORE>  (21) 
-7.4304

>  <SCORE.INTER>  (21) 
-7.59213

>  <SCORE.INTER.CONST>  (21) 
1

>  <SCORE.INTER.POLAR>  (21) 
-0.783106

>  <SCORE.INTER.REPUL>  (21) 
0

>  <SCORE.INTER.ROT>  (21) 
7

>  <SCORE.INTER.VDW>  (21) 
-17.3296

>  <SCORE.INTER.norm>  (21) 
-0.345097

>  <SCORE.INTRA>  (21) 
8.72702

>  <SCORE.INTRA.DIHEDRAL>  (21) 
1.94941

>  <SCORE.INTRA.DIHEDRAL.0>  (21) 
3.78927

>  <SCORE.INTRA.POLAR>  (21) 
0

>  <SCORE.INTRA.POLAR.0>  (21) 
0

>  <SCORE.INTRA.REPUL>  (21) 
0

>  <SCORE.INTRA.REPUL.0>  (21) 
0

>  <SCORE.INTRA.VDW>  (21) 
7.75232

>  <SCORE.INTRA.VDW.0>  (21) 
1.02728

>  <SCORE.INTRA.norm>  (21) 
0.396683

>  <SCORE.RESTR>  (21) 
0.567962

>  <SCORE.RESTR.CAVITY>  (21) 
0.567962

>  <SCORE.RESTR.norm>  (21) 
0.0258165

>  <SCORE.SYSTEM>  (21) 
-9.1333

>  <SCORE.SYSTEM.CONST>  (21) 
0

>  <SCORE.SYSTEM.DIHEDRAL>  (21) 
4.93329

>  <SCORE.SYSTEM.POLAR>  (21) 
-2.82137

>  <SCORE.SYSTEM.VDW>  (21) 
-2.00727

>  <SCORE.SYSTEM.norm>  (21) 
-0.41515

>  <SCORE.heavy>  (21) 
22

>  <SCORE.norm>  (21) 
-0.337747

$$$$
denovo_401
     RDKit          3D

 22 23  0  0  0  0  0  0  0  0999 V2000
  -14.9881   13.7958  -11.0977 C   0  0  0  0  0  0  0  0  0  0  0  0
  -15.4870   13.7062  -12.4257 O   0  0  0  0  0  0  0  0  0  0  0  0
  -14.7609   12.7480  -13.1990 C   0  0  0  0  0  0  0  0  0  0  0  0
  -13.4696   13.3823  -13.7603 C   0  0  2  0  0  0  0  0  0  0  0  0
  -13.7662   14.7977  -14.2437 C   0  0  0  0  0  0  0  0  0  0  0  0
  -14.1242   15.7882  -13.3166 C   0  0  0  0  0  0  0  0  0  0  0  0
  -14.4026   17.0898  -13.7375 C   0  0  0  0  0  0  0  0  0  0  0  0
  -14.3279   17.4177  -15.0891 C   0  0  0  0  0  0  0  0  0  0  0  0
  -13.9751   16.4447  -16.0213 C   0  0  0  0  0  0  0  0  0  0  0  0
  -13.6966   15.1423  -15.6028 C   0  0  0  0  0  0  0  0  0  0  0  0
  -12.8123   12.5229  -14.8703 C   0  0  2  0  0  0  0  0  0  0  0  0
  -12.4181   11.1078  -14.4345 C   0  0  0  0  0  0  0  0  0  0  0  0
  -11.2590   10.6880  -15.3437 C   0  0  0  0  0  0  0  0  0  0  0  0
  -10.8927   11.9152  -16.1827 C   0  0  2  0  0  0  0  0  0  0  0  0
   -9.3944   12.1256  -16.4616 C   0  0  0  0  0  0  0  0  0  0  0  0
   -8.8228   11.6648  -17.8462 C   0  0  0  0  0  0  0  0  0  0  0  0
   -9.0090   12.7898  -18.8847 C   0  0  0  0  0  0  0  0  0  0  0  0
   -7.3004   11.4603  -17.6396 C   0  0  0  0  0  0  0  0  0  0  0  0
   -9.4753   10.3407  -18.3550 C   0  0  1  0  0  0  0  0  0  0  0  0
   -9.3075    9.1326  -17.4330 C   0  0  0  0  0  0  0  0  0  0  0  0
  -10.8818   10.5036  -18.5456 O   0  0  0  0  0  0  0  0  0  0  0  0
  -11.4779   13.0816  -15.3755 C   0  0  0  0  0  0  0  0  0  0  0  0
  1  2  1  0
  2  3  1  0
  4  3  1  6
  4  5  1  0
  5  6  2  0
  6  7  1  0
  7  8  2  0
  8  9  1  0
  9 10  2  0
  4 11  1  0
 11 12  1  1
 12 13  1  0
 13 14  1  0
 14 15  1  1
 15 16  1  0
 16 17  1  0
 16 18  1  0
 16 19  1  0
 19 20  1  1
 19 21  1  0
 14 22  1  0
 10  5  1  0
 22 11  1  0
M  END
>  <CHROM.0>  (22) 
-178.37919379,177.39599141,21.11471135,65.83696359,-66.24004167,-66.13239846
64.96905825,-50.91904213,80.84113598,-165.15378561,-64.21719732,-71.36329885
68.76647810,178.95888465

>  <CHROM.1>  (22) 
-82.91114713,-41.23275053,66.31224456,-59.18198929,99.16714289,86.15250367
-59.37172956,178.83919208,-12.06172798,12.99096421,-15.47014502,2.85631348
0.80583755,-0.37768146

>  <Name>  (22) 
denovo_401

>  <RI>  (22) 
1.14584e+09

>  <Rbt.Current_Directory>  (22) 
/tmp/claude-0/-home-user-Rare-cancers/1af35c7f-7dc4-53ce-91d2-1631a2a10a85/scratchpad/smwork/cross/dock_8XTT-model2

>  <Rbt.Executable>  (22) 
rbdock - v25.07-alpha

>  <Rbt.Library>  (22) 
libRbt.so (25.07, Buildalpha)

>  <Rbt.Parameter_File>  (22) 
/tmp/claude-0/-home-user-Rare-cancers/1af35c7f-7dc4-53ce-91d2-1631a2a10a85/scratchpad/rdroot/share/rDock/data/scripts/dock.prm

>  <Rbt.Receptor>  (22) 
rec.prm

>  <SCORE>  (22) 
-6.9340

>  <SCORE.INTER>  (22) 
-14.3348

>  <SCORE.INTER.CONST>  (22) 
1

>  <SCORE.INTER.POLAR>  (22) 
-0.567345

>  <SCORE.INTER.REPUL>  (22) 
0.0304914

>  <SCORE.INTER.ROT>  (22) 
7

>  <SCORE.INTER.VDW>  (22) 
-24.9583

>  <SCORE.INTER.norm>  (22) 
-0.651584

>  <SCORE.INTRA>  (22) 
7.56336

>  <SCORE.INTRA.DIHEDRAL>  (22) 
7.70614

>  <SCORE.INTRA.DIHEDRAL.0>  (22) 
3.78927

>  <SCORE.INTRA.POLAR>  (22) 
0

>  <SCORE.INTRA.POLAR.0>  (22) 
0

>  <SCORE.INTRA.REPUL>  (22) 
0

>  <SCORE.INTRA.REPUL.0>  (22) 
0

>  <SCORE.INTRA.VDW>  (22) 
3.71029

>  <SCORE.INTRA.VDW.0>  (22) 
1.02728

>  <SCORE.INTRA.norm>  (22) 
0.343789

>  <SCORE.RESTR>  (22) 
0.0130955

>  <SCORE.RESTR.CAVITY>  (22) 
0.0130955

>  <SCORE.RESTR.norm>  (22) 
0.00059525

>  <SCORE.SYSTEM>  (22) 
-0.175563

>  <SCORE.SYSTEM.CONST>  (22) 
0

>  <SCORE.SYSTEM.DIHEDRAL>  (22) 
9.37016

>  <SCORE.SYSTEM.POLAR>  (22) 
-2.86626

>  <SCORE.SYSTEM.REPUL>  (22) 
0.373563

>  <SCORE.SYSTEM.VDW>  (22) 
3.01682

>  <SCORE.SYSTEM.norm>  (22) 
-0.00798013

>  <SCORE.heavy>  (22) 
22

>  <SCORE.norm>  (22) 
-0.31518

$$$$
denovo_401
     RDKit          3D

 22 23  0  0  0  0  0  0  0  0999 V2000
  -13.2721   17.0359  -16.9845 C   0  0  0  0  0  0  0  0  0  0  0  0
  -13.7358   15.7711  -16.5312 O   0  0  0  0  0  0  0  0  0  0  0  0
  -13.8215   15.7203  -15.1052 C   0  0  0  0  0  0  0  0  0  0  0  0
  -14.3663   14.3484  -14.6511 C   0  0  2  0  0  0  0  0  0  0  0  0
  -14.4973   14.3303  -13.1320 C   0  0  0  0  0  0  0  0  0  0  0  0
  -13.8827   15.3348  -12.3692 C   0  0  0  0  0  0  0  0  0  0  0  0
  -13.9876   15.3360  -10.9772 C   0  0  0  0  0  0  0  0  0  0  0  0
  -14.7064   14.3337  -10.3301 C   0  0  0  0  0  0  0  0  0  0  0  0
  -15.3208   13.3290  -11.0740 C   0  0  0  0  0  0  0  0  0  0  0  0
  -15.2171   13.3256  -12.4662 C   0  0  0  0  0  0  0  0  0  0  0  0
  -13.5120   13.1626  -15.1675 C   0  0  2  0  0  0  0  0  0  0  0  0
  -13.4285   11.9695  -14.2099 C   0  0  0  0  0  0  0  0  0  0  0  0
  -12.1077   11.2604  -14.5248 C   0  0  0  0  0  0  0  0  0  0  0  0
  -11.3720   12.1352  -15.5434 C   0  0  2  0  0  0  0  0  0  0  0  0
   -9.8446   12.2268  -15.3834 C   0  0  0  0  0  0  0  0  0  0  0  0
   -8.9408   11.7120  -16.5557 C   0  0  0  0  0  0  0  0  0  0  0  0
   -7.4766   11.6195  -16.0800 C   0  0  0  0  0  0  0  0  0  0  0  0
   -9.4247   10.2748  -16.8763 C   0  0  0  0  0  0  0  0  0  0  0  0
   -9.0435   12.6069  -17.8311 C   0  0  1  0  0  0  0  0  0  0  0  0
   -8.3721   12.0409  -19.0828 C   0  0  0  0  0  0  0  0  0  0  0  0
  -10.4080   12.8416  -18.1830 O   0  0  0  0  0  0  0  0  0  0  0  0
  -12.0332   13.5090  -15.3711 C   0  0  0  0  0  0  0  0  0  0  0  0
  1  2  1  0
  2  3  1  0
  4  3  1  1
  4  5  1  0
  5  6  2  0
  6  7  1  0
  7  8  2  0
  8  9  1  0
  9 10  2  0
  4 11  1  0
 11 12  1  1
 12 13  1  0
 13 14  1  0
 14 15  1  1
 15 16  1  0
 16 17  1  0
 16 18  1  0
 16 19  1  0
 19 20  1  6
 19 21  1  0
 14 22  1  0
 10  5  1  0
 22 11  1  0
M  END
>  <CHROM.0>  (23) 
-70.94363455,175.08957517,-175.21298057,64.81818814,75.66614788,176.67636868
-175.10520332,-50.71583637,-158.32874321,67.73673694,-64.11704194,-176.92085724
70.62857095,179.16765760

>  <CHROM.1>  (23) 
178.37437572,-178.00928766,-13.54458919,146.00898741,118.53798277,-168.21870137
-170.38235126,70.56945169,-12.14479148,13.37068397,-15.04678290,2.84747691
-0.74667730,2.22854530

>  <Name>  (23) 
denovo_401

>  <RI>  (23) 
1.14584e+09

>  <Rbt.Current_Directory>  (23) 
/tmp/claude-0/-home-user-Rare-cancers/1af35c7f-7dc4-53ce-91d2-1631a2a10a85/scratchpad/smwork/cross/dock_8XTT-model2

>  <Rbt.Executable>  (23) 
rbdock - v25.07-alpha

>  <Rbt.Library>  (23) 
libRbt.so (25.07, Buildalpha)

>  <Rbt.Parameter_File>  (23) 
/tmp/claude-0/-home-user-Rare-cancers/1af35c7f-7dc4-53ce-91d2-1631a2a10a85/scratchpad/rdroot/share/rDock/data/scripts/dock.prm

>  <Rbt.Receptor>  (23) 
rec.prm

>  <SCORE>  (23) 
-6.3916

>  <SCORE.INTER>  (23) 
-14.3032

>  <SCORE.INTER.CONST>  (23) 
1

>  <SCORE.INTER.POLAR>  (23) 
-1.4414

>  <SCORE.INTER.REPUL>  (23) 
0

>  <SCORE.INTER.ROT>  (23) 
7

>  <SCORE.INTER.VDW>  (23) 
-21.8024

>  <SCORE.INTER.norm>  (23) 
-0.650144

>  <SCORE.INTRA>  (23) 
11.4116

>  <SCORE.INTRA.DIHEDRAL>  (23) 
8.35736

>  <SCORE.INTRA.DIHEDRAL.0>  (23) 
3.78927

>  <SCORE.INTRA.POLAR>  (23) 
0

>  <SCORE.INTRA.POLAR.0>  (23) 
0

>  <SCORE.INTRA.REPUL>  (23) 
0

>  <SCORE.INTRA.REPUL.0>  (23) 
0

>  <SCORE.INTRA.VDW>  (23) 
7.2329

>  <SCORE.INTRA.VDW.0>  (23) 
1.02728

>  <SCORE.INTRA.norm>  (23) 
0.518708

>  <SCORE.RESTR>  (23) 
0

>  <SCORE.RESTR.CAVITY>  (23) 
0

>  <SCORE.RESTR.norm>  (23) 
0

>  <SCORE.SYSTEM>  (23) 
-3.50002

>  <SCORE.SYSTEM.CONST>  (23) 
0

>  <SCORE.SYSTEM.DIHEDRAL>  (23) 
8.29811

>  <SCORE.SYSTEM.POLAR>  (23) 
-1.61792

>  <SCORE.SYSTEM.REPUL>  (23) 
0.22731

>  <SCORE.SYSTEM.VDW>  (23) 
-3.28471

>  <SCORE.SYSTEM.norm>  (23) 
-0.159092

>  <SCORE.heavy>  (23) 
22

>  <SCORE.norm>  (23) 
-0.290528

$$$$
denovo_401
     RDKit          3D

 22 23  0  0  0  0  0  0  0  0999 V2000
  -17.5074   17.6768  -14.5282 C   0  0  0  0  0  0  0  0  0  0  0  0
  -16.2129   17.1647  -14.8150 O   0  0  0  0  0  0  0  0  0  0  0  0
  -15.5088   16.8111  -13.6223 C   0  0  0  0  0  0  0  0  0  0  0  0
  -15.0587   15.3351  -13.6850 C   0  0  2  0  0  0  0  0  0  0  0  0
  -15.1982   14.7014  -12.3052 C   0  0  0  0  0  0  0  0  0  0  0  0
  -14.5179   15.2590  -11.2120 C   0  0  0  0  0  0  0  0  0  0  0  0
  -14.6294   14.6934   -9.9407 C   0  0  0  0  0  0  0  0  0  0  0  0
  -15.4204   13.5637   -9.7458 C   0  0  0  0  0  0  0  0  0  0  0  0
  -16.1006   12.9982  -10.8217 C   0  0  0  0  0  0  0  0  0  0  0  0
  -15.9905   13.5619  -12.0942 C   0  0  0  0  0  0  0  0  0  0  0  0
  -13.6253   15.1684  -14.2508 C   0  0  2  0  0  0  0  0  0  0  0  0
  -13.4639   15.5838  -15.7168 C   0  0  0  0  0  0  0  0  0  0  0  0
  -12.2875   14.7697  -16.2645 C   0  0  0  0  0  0  0  0  0  0  0  0
  -11.8861   13.7837  -15.1642 C   0  0  2  0  0  0  0  0  0  0  0  0
  -11.4563   12.3822  -15.6309 C   0  0  0  0  0  0  0  0  0  0  0  0
  -10.0021   12.1948  -16.1841 C   0  0  0  0  0  0  0  0  0  0  0  0
   -9.8264   13.0238  -17.4728 C   0  0  0  0  0  0  0  0  0  0  0  0
   -9.0514   12.7835  -15.1108 C   0  0  0  0  0  0  0  0  0  0  0  0
   -9.6478   10.6972  -16.4476 C   0  0  1  0  0  0  0  0  0  0  0  0
  -10.5076    9.9973  -17.5006 C   0  0  0  0  0  0  0  0  0  0  0  0
   -8.2944   10.5607  -16.8843 O   0  0  0  0  0  0  0  0  0  0  0  0
  -13.1366   13.7163  -14.2777 C   0  0  0  0  0  0  0  0  0  0  0  0
  1  2  1  0
  2  3  1  0
  4  3  1  1
  4  5  1  0
  5  6  2  0
  6  7  1  0
  7  8  2  0
  8  9  1  0
  9 10  2  0
  4 11  1  0
 11 12  1  6
 12 13  1  0
 13 14  1  0
 14 15  1  6
 15 16  1  0
 16 17  1  0
 16 18  1  0
 16 19  1  0
 19 20  1  6
 19 21  1  0
 14 22  1  0
 10  5  1  0
 22 11  1  0
M  END
>  <CHROM.0>  (24) 
36.91050731,174.06962601,-175.26361967,66.36226297,64.36887486,-64.06320033
-65.36586505,-50.03016155,-158.10363571,65.19420864,-61.18101506,-70.15363842
65.34667989,66.52968795

>  <CHROM.1>  (24) 
124.20733481,-142.03959276,-57.85955884,-65.22451585,79.53043537,-63.91860182
62.24441387,63.02799902,-13.08194285,13.91744697,-14.35971536,2.97210147
-0.73618089,2.14370508

>  <Name>  (24) 
denovo_401

>  <RI>  (24) 
1.14584e+09

>  <Rbt.Current_Directory>  (24) 
/tmp/claude-0/-home-user-Rare-cancers/1af35c7f-7dc4-53ce-91d2-1631a2a10a85/scratchpad/smwork/cross/dock_8XTT-model2

>  <Rbt.Executable>  (24) 
rbdock - v25.07-alpha

>  <Rbt.Library>  (24) 
libRbt.so (25.07, Buildalpha)

>  <Rbt.Parameter_File>  (24) 
/tmp/claude-0/-home-user-Rare-cancers/1af35c7f-7dc4-53ce-91d2-1631a2a10a85/scratchpad/rdroot/share/rDock/data/scripts/dock.prm

>  <Rbt.Receptor>  (24) 
rec.prm

>  <SCORE>  (24) 
-5.9915

>  <SCORE.INTER>  (24) 
-1.8167

>  <SCORE.INTER.CONST>  (24) 
1

>  <SCORE.INTER.POLAR>  (24) 
-0.666615

>  <SCORE.INTER.REPUL>  (24) 
0

>  <SCORE.INTER.ROT>  (24) 
7

>  <SCORE.INTER.VDW>  (24) 
-11.9502

>  <SCORE.INTER.norm>  (24) 
-0.0825772

>  <SCORE.INTRA>  (24) 
5.9409

>  <SCORE.INTRA.DIHEDRAL>  (24) 
9.82674

>  <SCORE.INTRA.DIHEDRAL.0>  (24) 
3.78927

>  <SCORE.INTRA.POLAR>  (24) 
0

>  <SCORE.INTRA.POLAR.0>  (24) 
0

>  <SCORE.INTRA.REPUL>  (24) 
0

>  <SCORE.INTRA.REPUL.0>  (24) 
0

>  <SCORE.INTRA.VDW>  (24) 
1.02753

>  <SCORE.INTRA.VDW.0>  (24) 
1.02728

>  <SCORE.INTRA.norm>  (24) 
0.270041

>  <SCORE.RESTR>  (24) 
0

>  <SCORE.RESTR.CAVITY>  (24) 
0

>  <SCORE.RESTR.norm>  (24) 
0

>  <SCORE.SYSTEM>  (24) 
-10.1157

>  <SCORE.SYSTEM.CONST>  (24) 
0

>  <SCORE.SYSTEM.DIHEDRAL>  (24) 
4.96686

>  <SCORE.SYSTEM.POLAR>  (24) 
-3.33129

>  <SCORE.SYSTEM.REPUL>  (24) 
0.0454878

>  <SCORE.SYSTEM.VDW>  (24) 
-1.50018

>  <SCORE.SYSTEM.norm>  (24) 
-0.459805

>  <SCORE.heavy>  (24) 
22

>  <SCORE.norm>  (24) 
-0.272341

$$$$
denovo_401
     RDKit          3D

 22 23  0  0  0  0  0  0  0  0999 V2000
  -10.8473    9.0920  -18.5806 C   0  0  0  0  0  0  0  0  0  0  0  0
   -9.6797    8.3555  -18.2418 O   0  0  0  0  0  0  0  0  0  0  0  0
   -8.4941    9.1337  -18.4211 C   0  0  0  0  0  0  0  0  0  0  0  0
   -8.2561   10.0364  -17.1909 C   0  0  2  0  0  0  0  0  0  0  0  0
   -9.0167   11.3463  -17.3659 C   0  0  0  0  0  0  0  0  0  0  0  0
   -9.7445   11.8768  -16.2899 C   0  0  0  0  0  0  0  0  0  0  0  0
  -10.4501   13.0732  -16.4290 C   0  0  0  0  0  0  0  0  0  0  0  0
  -10.4384   13.7537  -17.6442 C   0  0  0  0  0  0  0  0  0  0  0  0
   -9.7215   13.2387  -18.7217 C   0  0  0  0  0  0  0  0  0  0  0  0
   -9.0154   12.0422  -18.5851 C   0  0  0  0  0  0  0  0  0  0  0  0
   -6.7518   10.2798  -16.9072 C   0  0  2  0  0  0  0  0  0  0  0  0
   -6.4654   11.3520  -15.8508 C   0  0  0  0  0  0  0  0  0  0  0  0
   -5.0776   11.9127  -16.1764 C   0  0  0  0  0  0  0  0  0  0  0  0
   -4.6469   11.2766  -17.5008 C   0  0  2  0  0  0  0  0  0  0  0  0
   -3.8707   12.1845  -18.4704 C   0  0  0  0  0  0  0  0  0  0  0  0
   -2.7055   11.5552  -19.3085 C   0  0  0  0  0  0  0  0  0  0  0  0
   -1.8007   10.7115  -18.3874 C   0  0  0  0  0  0  0  0  0  0  0  0
   -3.3733   10.5933  -20.3240 C   0  0  0  0  0  0  0  0  0  0  0  0
   -1.8619   12.6290  -20.0654 C   0  0  1  0  0  0  0  0  0  0  0  0
   -1.3358   13.7756  -19.2014 C   0  0  0  0  0  0  0  0  0  0  0  0
   -0.7169   12.0383  -20.6828 O   0  0  0  0  0  0  0  0  0  0  0  0
   -5.9731   10.8103  -18.1156 C   0  0  0  0  0  0  0  0  0  0  0  0
  1  2  1  0
  2  3  1  0
  4  3  1  6
  4  5  1  0
  5  6  2  0
  6  7  1  0
  7  8  2  0
  8  9  1  0
  9 10  2  0
  4 11  1  0
 11 12  1  1
 12 13  1  0
 13 14  1  0
 14 15  1  6
 15 16  1  0
 16 17  1  0
 16 18  1  0
 16 19  1  0
 19 20  1  1
 19 21  1  0
 14 22  1  0
 10  5  1  0
 22 11  1  0
M  END
>  <CHROM.0>  (25) 
178.87568889,-61.31610930,-60.67642232,-51.77112045,175.13817770,-63.63368844
-62.98468093,71.32409130,-160.46014465,66.60570132,66.77238012,-71.67721306
-174.64948176,-176.47594994

>  <CHROM.1>  (25) 
82.47695811,-86.94176925,135.75206422,170.14301086,142.78147791,-47.19349818
52.13494910,174.52279775,-6.27437856,11.37711742,-18.16219239,-3.08034835
0.25398880,0.23254267

>  <Name>  (25) 
denovo_401

>  <RI>  (25) 
1.14584e+09

>  <Rbt.Current_Directory>  (25) 
/tmp/claude-0/-home-user-Rare-cancers/1af35c7f-7dc4-53ce-91d2-1631a2a10a85/scratchpad/smwork/cross/dock_8XTT-model2

>  <Rbt.Executable>  (25) 
rbdock - v25.07-alpha

>  <Rbt.Library>  (25) 
libRbt.so (25.07, Buildalpha)

>  <Rbt.Parameter_File>  (25) 
/tmp/claude-0/-home-user-Rare-cancers/1af35c7f-7dc4-53ce-91d2-1631a2a10a85/scratchpad/rdroot/share/rDock/data/scripts/dock.prm

>  <Rbt.Receptor>  (25) 
rec.prm

>  <SCORE>  (25) 
-5.3744

>  <SCORE.INTER>  (25) 
-4.8677

>  <SCORE.INTER.CONST>  (25) 
1

>  <SCORE.INTER.POLAR>  (25) 
0

>  <SCORE.INTER.REPUL>  (25) 
0

>  <SCORE.INTER.ROT>  (25) 
7

>  <SCORE.INTER.VDW>  (25) 
-17.2677

>  <SCORE.INTER.norm>  (25) 
-0.221259

>  <SCORE.INTRA>  (25) 
5.69389

>  <SCORE.INTRA.DIHEDRAL>  (25) 
7.35779

>  <SCORE.INTRA.DIHEDRAL.0>  (25) 
3.78927

>  <SCORE.INTRA.POLAR>  (25) 
0

>  <SCORE.INTRA.POLAR.0>  (25) 
0

>  <SCORE.INTRA.REPUL>  (25) 
0

>  <SCORE.INTRA.REPUL.0>  (25) 
0

>  <SCORE.INTRA.VDW>  (25) 
2.01499

>  <SCORE.INTRA.VDW.0>  (25) 
1.02728

>  <SCORE.INTRA.norm>  (25) 
0.258813

>  <SCORE.RESTR>  (25) 
0.226079

>  <SCORE.RESTR.CAVITY>  (25) 
0.226079

>  <SCORE.RESTR.norm>  (25) 
0.0102763

>  <SCORE.SYSTEM>  (25) 
-6.42663

>  <SCORE.SYSTEM.CONST>  (25) 
0

>  <SCORE.SYSTEM.DIHEDRAL>  (25) 
3.31958

>  <SCORE.SYSTEM.POLAR>  (25) 
-2.14328

>  <SCORE.SYSTEM.REPUL>  (25) 
0.140993

>  <SCORE.SYSTEM.VDW>  (25) 
-1.50423

>  <SCORE.SYSTEM.norm>  (25) 
-0.29212

>  <SCORE.heavy>  (25) 
22

>  <SCORE.norm>  (25) 
-0.244289

$$$$
denovo_401
     RDKit          3D

 22 23  0  0  0  0  0  0  0  0999 V2000
  -15.9608   12.9875  -11.1870 C   0  0  0  0  0  0  0  0  0  0  0  0
  -14.7941   13.5001  -11.8165 O   0  0  0  0  0  0  0  0  0  0  0  0
  -14.5317   12.8423  -13.0581 C   0  0  0  0  0  0  0  0  0  0  0  0
  -13.3199   13.4919  -13.7615 C   0  0  2  0  0  0  0  0  0  0  0  0
  -13.7118   14.8711  -14.2804 C   0  0  0  0  0  0  0  0  0  0  0  0
  -13.4875   15.1970  -15.6266 C   0  0  0  0  0  0  0  0  0  0  0  0
  -13.8361   16.4547  -16.1220 C   0  0  0  0  0  0  0  0  0  0  0  0
  -14.4118   17.4023  -15.2791 C   0  0  0  0  0  0  0  0  0  0  0  0
  -14.6393   17.0937  -13.9400 C   0  0  0  0  0  0  0  0  0  0  0  0
  -14.2912   15.8367  -13.4422 C   0  0  0  0  0  0  0  0  0  0  0  0
  -12.7306   12.6021  -14.8856 C   0  0  2  0  0  0  0  0  0  0  0  0
  -12.3770   11.1754  -14.4529 C   0  0  0  0  0  0  0  0  0  0  0  0
  -11.2635   10.7069  -15.3949 C   0  0  0  0  0  0  0  0  0  0  0  0
  -10.8773   11.9147  -16.2529 C   0  0  2  0  0  0  0  0  0  0  0  0
   -9.3816   12.0663  -16.5795 C   0  0  0  0  0  0  0  0  0  0  0  0
   -8.7404   11.0757  -17.6108 C   0  0  0  0  0  0  0  0  0  0  0  0
   -9.7938   10.0441  -18.0633 C   0  0  0  0  0  0  0  0  0  0  0  0
   -8.3530   11.9279  -18.8462 C   0  0  0  0  0  0  0  0  0  0  0  0
   -7.4781   10.3523  -17.0441 C   0  0  1  0  0  0  0  0  0  0  0  0
   -6.7374    9.4558  -18.0369 C   0  0  0  0  0  0  0  0  0  0  0  0
   -6.5178   11.2967  -16.5676 O   0  0  0  0  0  0  0  0  0  0  0  0
  -11.3924   13.1068  -15.4356 C   0  0  0  0  0  0  0  0  0  0  0  0
  1  2  1  0
  2  3  1  0
  4  3  1  6
  4  5  1  0
  5  6  2  0
  6  7  1  0
  7  8  2  0
  8  9  1  0
  9 10  2  0
  4 11  1  0
 11 12  1  1
 12 13  1  0
 13 14  1  0
 14 15  1  1
 15 16  1  0
 16 17  1  0
 16 18  1  0
 16 19  1  0
 19 20  1  6
 19 21  1  0
 14 22  1  0
 10  5  1  0
 22 11  1  0
M  END
>  <CHROM.0>  (26) 
179.38062080,-66.61921497,-62.09108058,-51.39409622,-170.78063439,61.47537856
-65.29112419,-156.50613338,-36.50729599,-61.63990243,-62.63148142,55.26148261
71.36399275,-175.93686729

>  <CHROM.1>  (26) 
175.90906350,-71.30872397,-127.17135835,-53.29502236,72.55108048,-2.89022678
-175.28807300,-63.09941780,-11.67906621,12.89184864,-15.35449403,2.93345959
0.69946875,-0.49202838

>  <Name>  (26) 
denovo_401

>  <RI>  (26) 
1.14584e+09

>  <Rbt.Current_Directory>  (26) 
/tmp/claude-0/-home-user-Rare-cancers/1af35c7f-7dc4-53ce-91d2-1631a2a10a85/scratchpad/smwork/cross/dock_8XTT-model2

>  <Rbt.Executable>  (26) 
rbdock - v25.07-alpha

>  <Rbt.Library>  (26) 
libRbt.so (25.07, Buildalpha)

>  <Rbt.Parameter_File>  (26) 
/tmp/claude-0/-home-user-Rare-cancers/1af35c7f-7dc4-53ce-91d2-1631a2a10a85/scratchpad/rdroot/share/rDock/data/scripts/dock.prm

>  <Rbt.Receptor>  (26) 
rec.prm

>  <SCORE>  (26) 
-5.3280

>  <SCORE.INTER>  (26) 
-14.7521

>  <SCORE.INTER.CONST>  (26) 
1

>  <SCORE.INTER.POLAR>  (26) 
-0.000638144

>  <SCORE.INTER.REPUL>  (26) 
0

>  <SCORE.INTER.ROT>  (26) 
7

>  <SCORE.INTER.VDW>  (26) 
-27.1499

>  <SCORE.INTER.norm>  (26) 
-0.670548

>  <SCORE.INTRA>  (26) 
8.82857

>  <SCORE.INTRA.DIHEDRAL>  (26) 
5.34343

>  <SCORE.INTRA.DIHEDRAL.0>  (26) 
3.78927

>  <SCORE.INTRA.POLAR>  (26) 
0

>  <SCORE.INTRA.POLAR.0>  (26) 
0

>  <SCORE.INTRA.REPUL>  (26) 
0

>  <SCORE.INTRA.REPUL.0>  (26) 
0

>  <SCORE.INTRA.VDW>  (26) 
6.15685

>  <SCORE.INTRA.VDW.0>  (26) 
1.02728

>  <SCORE.INTRA.norm>  (26) 
0.401299

>  <SCORE.RESTR>  (26) 
0

>  <SCORE.RESTR.CAVITY>  (26) 
0

>  <SCORE.RESTR.norm>  (26) 
0

>  <SCORE.SYSTEM>  (26) 
0.595508

>  <SCORE.SYSTEM.CONST>  (26) 
0

>  <SCORE.SYSTEM.DIHEDRAL>  (26) 
5.4913

>  <SCORE.SYSTEM.POLAR>  (26) 
-0.721301

>  <SCORE.SYSTEM.REPUL>  (26) 
0.0410059

>  <SCORE.SYSTEM.VDW>  (26) 
0.097252

>  <SCORE.SYSTEM.norm>  (26) 
0.0270685

>  <SCORE.heavy>  (26) 
22

>  <SCORE.norm>  (26) 
-0.242181

$$$$
denovo_401
     RDKit          3D

 22 23  0  0  0  0  0  0  0  0999 V2000
  -15.2025   12.6422  -12.7805 C   0  0  0  0  0  0  0  0  0  0  0  0
  -14.4776   11.7692  -13.6366 O   0  0  0  0  0  0  0  0  0  0  0  0
  -13.9332   12.4642  -14.7608 C   0  0  0  0  0  0  0  0  0  0  0  0
  -12.8730   13.4861  -14.2952 C   0  0  2  0  0  0  0  0  0  0  0  0
  -13.4265   14.8988  -14.4471 C   0  0  0  0  0  0  0  0  0  0  0  0
  -13.5202   15.4753  -15.7229 C   0  0  0  0  0  0  0  0  0  0  0  0
  -14.0214   16.7681  -15.8846 C   0  0  0  0  0  0  0  0  0  0  0  0
  -14.4339   17.5012  -14.7744 C   0  0  0  0  0  0  0  0  0  0  0  0
  -14.3457   16.9425  -13.5015 C   0  0  0  0  0  0  0  0  0  0  0  0
  -13.8445   15.6499  -13.3372 C   0  0  0  0  0  0  0  0  0  0  0  0
  -11.5168   13.3194  -15.0270 C   0  0  2  0  0  0  0  0  0  0  0  0
  -11.4964   13.8491  -16.4646 C   0  0  0  0  0  0  0  0  0  0  0  0
  -10.4207   13.0447  -17.2011 C   0  0  0  0  0  0  0  0  0  0  0  0
   -9.9452   11.9583  -16.2328 C   0  0  2  0  0  0  0  0  0  0  0  0
   -9.6272   10.5867  -16.8528 C   0  0  0  0  0  0  0  0  0  0  0  0
   -8.4139   10.4784  -17.8388 C   0  0  0  0  0  0  0  0  0  0  0  0
   -8.5910   11.4869  -18.9923 C   0  0  0  0  0  0  0  0  0  0  0  0
   -7.1605   10.9008  -17.0308 C   0  0  0  0  0  0  0  0  0  0  0  0
   -8.2244    9.0346  -18.4022 C   0  0  1  0  0  0  0  0  0  0  0  0
   -7.6976    8.0060  -17.4011 C   0  0  0  0  0  0  0  0  0  0  0  0
   -9.4587    8.5124  -18.8970 O   0  0  0  0  0  0  0  0  0  0  0  0
  -11.0952   11.8592  -15.2218 C   0  0  0  0  0  0  0  0  0  0  0  0
  1  2  1  0
  2  3  1  0
  4  3  1  6
  4  5  1  0
  5  6  2  0
  6  7  1  0
  7  8  2  0
  8  9  1  0
  9 10  2  0
  4 11  1  0
 11 12  1  6
 12 13  1  0
 13 14  1  0
 14 15  1  6
 15 16  1  0
 16 17  1  0
 16 18  1  0
 16 19  1  0
 19 20  1  1
 19 21  1  0
 14 22  1  0
 10  5  1  0
 22 11  1  0
M  END
>  <CHROM.0>  (27) 
33.20595374,177.35750374,-61.05696453,150.33065005,176.80879642,-65.04473581
-64.01801151,68.97107279,-38.60802630,-164.33958206,64.33510098,-71.17361782
67.12530564,66.71097634

>  <CHROM.1>  (27) 
65.19971391,-108.11651966,-74.88533877,75.72318611,66.20544129,-55.85068570
-71.60640122,-59.51128650,-11.48767975,12.63179261,-15.88671690,2.57443898
0.69235895,-0.19926425

>  <Name>  (27) 
denovo_401

>  <RI>  (27) 
1.14584e+09

>  <Rbt.Current_Directory>  (27) 
/tmp/claude-0/-home-user-Rare-cancers/1af35c7f-7dc4-53ce-91d2-1631a2a10a85/scratchpad/smwork/cross/dock_8XTT-model2

>  <Rbt.Executable>  (27) 
rbdock - v25.07-alpha

>  <Rbt.Library>  (27) 
libRbt.so (25.07, Buildalpha)

>  <Rbt.Parameter_File>  (27) 
/tmp/claude-0/-home-user-Rare-cancers/1af35c7f-7dc4-53ce-91d2-1631a2a10a85/scratchpad/rdroot/share/rDock/data/scripts/dock.prm

>  <Rbt.Receptor>  (27) 
rec.prm

>  <SCORE>  (27) 
-4.2386

>  <SCORE.INTER>  (27) 
-11.9226

>  <SCORE.INTER.CONST>  (27) 
1

>  <SCORE.INTER.POLAR>  (27) 
-0.422109

>  <SCORE.INTER.REPUL>  (27) 
0

>  <SCORE.INTER.ROT>  (27) 
7

>  <SCORE.INTER.VDW>  (27) 
-22.8874

>  <SCORE.INTER.norm>  (27) 
-0.541934

>  <SCORE.INTRA>  (27) 
11.1004

>  <SCORE.INTRA.DIHEDRAL>  (27) 
3.86079

>  <SCORE.INTRA.DIHEDRAL.0>  (27) 
3.78927

>  <SCORE.INTRA.POLAR>  (27) 
0

>  <SCORE.INTRA.POLAR.0>  (27) 
0

>  <SCORE.INTRA.REPUL>  (27) 
0

>  <SCORE.INTRA.REPUL.0>  (27) 
0

>  <SCORE.INTRA.VDW>  (27) 
9.17001

>  <SCORE.INTRA.VDW.0>  (27) 
1.02728

>  <SCORE.INTRA.norm>  (27) 
0.504564

>  <SCORE.RESTR>  (27) 
0.45928

>  <SCORE.RESTR.CAVITY>  (27) 
0.45928

>  <SCORE.RESTR.norm>  (27) 
0.0208764

>  <SCORE.SYSTEM>  (27) 
-3.87577

>  <SCORE.SYSTEM.CONST>  (27) 
0

>  <SCORE.SYSTEM.DIHEDRAL>  (27) 
8.96341

>  <SCORE.SYSTEM.POLAR>  (27) 
-2.28862

>  <SCORE.SYSTEM.REPUL>  (27) 
0.113853

>  <SCORE.SYSTEM.VDW>  (27) 
-1.14544

>  <SCORE.SYSTEM.norm>  (27) 
-0.176171

>  <SCORE.heavy>  (27) 
22

>  <SCORE.norm>  (27) 
-0.192665

$$$$
denovo_401
     RDKit          3D

 22 23  0  0  0  0  0  0  0  0999 V2000
  -13.1797   17.0388  -16.9595 C   0  0  0  0  0  0  0  0  0  0  0  0
  -13.6694   15.7772  -16.5247 O   0  0  0  0  0  0  0  0  0  0  0  0
  -13.6956   15.6840  -15.0986 C   0  0  0  0  0  0  0  0  0  0  0  0
  -14.3097   14.3358  -14.6623 C   0  0  2  0  0  0  0  0  0  0  0  0
  -14.4709   14.3167  -13.1462 C   0  0  0  0  0  0  0  0  0  0  0  0
  -15.2084   13.2894  -12.5383 C   0  0  0  0  0  0  0  0  0  0  0  0
  -15.3707   13.2540  -11.1523 C   0  0  0  0  0  0  0  0  0  0  0  0
  -14.7997   14.2444  -10.3567 C   0  0  0  0  0  0  0  0  0  0  0  0
  -14.0660   15.2713  -10.9460 C   0  0  0  0  0  0  0  0  0  0  0  0
  -13.9025   15.3090  -12.3320 C   0  0  0  0  0  0  0  0  0  0  0  0
  -13.4992   13.1154  -15.1686 C   0  0  2  0  0  0  0  0  0  0  0  0
  -13.2912   12.0097  -14.1285 C   0  0  0  0  0  0  0  0  0  0  0  0
  -12.0024   11.2844  -14.5279 C   0  0  0  0  0  0  0  0  0  0  0  0
  -11.3980   12.0729  -15.6928 C   0  0  2  0  0  0  0  0  0  0  0  0
   -9.8639   12.1876  -15.7129 C   0  0  0  0  0  0  0  0  0  0  0  0
   -9.0867   11.5686  -16.9249 C   0  0  0  0  0  0  0  0  0  0  0  0
   -9.3089   10.0428  -16.9591 C   0  0  0  0  0  0  0  0  0  0  0  0
   -9.7285   12.1679  -18.2022 C   0  0  0  0  0  0  0  0  0  0  0  0
   -7.5605   11.8960  -16.8903 C   0  0  1  0  0  0  0  0  0  0  0  0
   -6.8340   11.4923  -15.6069 C   0  0  0  0  0  0  0  0  0  0  0  0
   -6.8727   11.2433  -17.9589 O   0  0  0  0  0  0  0  0  0  0  0  0
  -12.0578   13.4523  -15.5648 C   0  0  0  0  0  0  0  0  0  0  0  0
  1  2  1  0
  2  3  1  0
  4  3  1  1
  4  5  1  0
  5  6  2  0
  6  7  1  0
  7  8  2  0
  8  9  1  0
  9 10  2  0
  4 11  1  0
 11 12  1  1
 12 13  1  0
 13 14  1  0
 14 15  1  1
 15 16  1  0
 16 17  1  0
 16 18  1  0
 16 19  1  0
 19 20  1  1
 19 21  1  0
 14 22  1  0
 10  5  1  0
 22 11  1  0
M  END
>  <CHROM.0>  (28) 
-160.97090522,59.62498639,-58.81821945,66.65432178,71.90019460,-64.65727377
67.81432415,70.91601014,-153.96736420,-62.00770838,-61.91808705,-68.07083621
70.26337237,-177.65851481

>  <CHROM.1>  (28) 
176.65739028,-173.82887193,169.52045014,136.34068695,118.01946351,-62.94240149
55.39545581,173.09571053,-11.89890285,13.21211198,-14.97880675,2.94881364
-0.68316257,2.22324992

>  <Name>  (28) 
denovo_401

>  <RI>  (28) 
1.14584e+09

>  <Rbt.Current_Directory>  (28) 
/tmp/claude-0/-home-user-Rare-cancers/1af35c7f-7dc4-53ce-91d2-1631a2a10a85/scratchpad/smwork/cross/dock_8XTT-model2

>  <Rbt.Executable>  (28) 
rbdock - v25.07-alpha

>  <Rbt.Library>  (28) 
libRbt.so (25.07, Buildalpha)

>  <Rbt.Parameter_File>  (28) 
/tmp/claude-0/-home-user-Rare-cancers/1af35c7f-7dc4-53ce-91d2-1631a2a10a85/scratchpad/rdroot/share/rDock/data/scripts/dock.prm

>  <Rbt.Receptor>  (28) 
rec.prm

>  <SCORE>  (28) 
-4.0312

>  <SCORE.INTER>  (28) 
-7.52291

>  <SCORE.INTER.CONST>  (28) 
1

>  <SCORE.INTER.POLAR>  (28) 
-0.954561

>  <SCORE.INTER.REPUL>  (28) 
0

>  <SCORE.INTER.ROT>  (28) 
7

>  <SCORE.INTER.VDW>  (28) 
-16.6774

>  <SCORE.INTER.norm>  (28) 
-0.34195

>  <SCORE.INTRA>  (28) 
12.1451

>  <SCORE.INTRA.DIHEDRAL>  (28) 
9.17698

>  <SCORE.INTRA.DIHEDRAL.0>  (28) 
3.78927

>  <SCORE.INTRA.POLAR>  (28) 
0

>  <SCORE.INTRA.POLAR.0>  (28) 
0

>  <SCORE.INTRA.REPUL>  (28) 
0

>  <SCORE.INTRA.REPUL.0>  (28) 
0

>  <SCORE.INTRA.VDW>  (28) 
7.55661

>  <SCORE.INTRA.VDW.0>  (28) 
1.02728

>  <SCORE.INTRA.norm>  (28) 
0.55205

>  <SCORE.RESTR>  (28) 
0

>  <SCORE.RESTR.CAVITY>  (28) 
0

>  <SCORE.RESTR.norm>  (28) 
0

>  <SCORE.SYSTEM>  (28) 
-8.65335

>  <SCORE.SYSTEM.CONST>  (28) 
0

>  <SCORE.SYSTEM.DIHEDRAL>  (28) 
4.69849

>  <SCORE.SYSTEM.POLAR>  (28) 
-3.06191

>  <SCORE.SYSTEM.REPUL>  (28) 
0.143567

>  <SCORE.SYSTEM.VDW>  (28) 
-1.30993

>  <SCORE.SYSTEM.norm>  (28) 
-0.393334

>  <SCORE.heavy>  (28) 
22

>  <SCORE.norm>  (28) 
-0.183234

$$$$
denovo_401
     RDKit          3D

 22 23  0  0  0  0  0  0  0  0999 V2000
  -15.1261   17.5156  -14.2251 C   0  0  0  0  0  0  0  0  0  0  0  0
  -14.1682   17.0545  -15.1687 O   0  0  0  0  0  0  0  0  0  0  0  0
  -13.3450   16.0210  -14.6233 C   0  0  0  0  0  0  0  0  0  0  0  0
  -14.1435   14.7038  -14.5133 C   0  0  2  0  0  0  0  0  0  0  0  0
  -14.5182   14.4558  -13.0562 C   0  0  0  0  0  0  0  0  0  0  0  0
  -15.4633   13.4681  -12.7398 C   0  0  0  0  0  0  0  0  0  0  0  0
  -15.8229   13.2262  -11.4128 C   0  0  0  0  0  0  0  0  0  0  0  0
  -15.2441   13.9683  -10.3860 C   0  0  0  0  0  0  0  0  0  0  0  0
  -14.3053   14.9530  -10.6849 C   0  0  0  0  0  0  0  0  0  0  0  0
  -13.9443   15.1969  -12.0112 C   0  0  0  0  0  0  0  0  0  0  0  0
  -13.3931   13.4941  -15.1267 C   0  0  2  0  0  0  0  0  0  0  0  0
  -13.0852   12.3644  -14.1385 C   0  0  0  0  0  0  0  0  0  0  0  0
  -11.8462   11.6466  -14.6827 C   0  0  0  0  0  0  0  0  0  0  0  0
  -11.3597   12.4608  -15.8846 C   0  0  2  0  0  0  0  0  0  0  0  0
   -9.8352   12.5736  -16.0574 C   0  0  0  0  0  0  0  0  0  0  0  0
   -9.1382   11.6678  -17.1296 C   0  0  0  0  0  0  0  0  0  0  0  0
   -9.5547   10.1980  -16.9172 C   0  0  0  0  0  0  0  0  0  0  0  0
   -9.6912   12.1212  -18.5047 C   0  0  0  0  0  0  0  0  0  0  0  0
   -7.5827   11.8012  -17.1094 C   0  0  1  0  0  0  0  0  0  0  0  0
   -6.9199   11.5225  -15.7600 C   0  0  0  0  0  0  0  0  0  0  0  0
   -6.9798   10.9024  -18.0420 O   0  0  0  0  0  0  0  0  0  0  0  0
  -11.9979   13.8378  -15.6591 C   0  0  0  0  0  0  0  0  0  0  0  0
  1  2  1  0
  2  3  1  0
  4  3  1  1
  4  5  1  0
  5  6  2  0
  6  7  1  0
  7  8  2  0
  8  9  1  0
  9 10  2  0
  4 11  1  0
 11 12  1  1
 12 13  1  0
 13 14  1  0
 14 15  1  1
 15 16  1  0
 16 17  1  0
 16 18  1  0
 16 19  1  0
 19 20  1  1
 19 21  1  0
 14 22  1  0
 10  5  1  0
 22 11  1  0
M  END
>  <CHROM.0>  (29) 
179.81512042,174.83694792,-61.49109277,65.89036974,74.87669798,-63.07858720
-66.50863233,68.64200326,-159.90560649,-165.57062044,-178.45567419,-70.84498109
69.27537887,-56.58978959

>  <CHROM.1>  (29) 
73.55305314,-104.74956492,167.48564334,119.24286745,101.77118157,-51.76484324
55.68766467,174.18571730,-12.05753245,13.40432788,-14.81361762,3.12091719
-0.73011485,2.43620933

>  <Name>  (29) 
denovo_401

>  <RI>  (29) 
1.14584e+09

>  <Rbt.Current_Directory>  (29) 
/tmp/claude-0/-home-user-Rare-cancers/1af35c7f-7dc4-53ce-91d2-1631a2a10a85/scratchpad/smwork/cross/dock_8XTT-model2

>  <Rbt.Executable>  (29) 
rbdock - v25.07-alpha

>  <Rbt.Library>  (29) 
libRbt.so (25.07, Buildalpha)

>  <Rbt.Parameter_File>  (29) 
/tmp/claude-0/-home-user-Rare-cancers/1af35c7f-7dc4-53ce-91d2-1631a2a10a85/scratchpad/rdroot/share/rDock/data/scripts/dock.prm

>  <Rbt.Receptor>  (29) 
rec.prm

>  <SCORE>  (29) 
-3.4827

>  <SCORE.INTER>  (29) 
-11.3792

>  <SCORE.INTER.CONST>  (29) 
1

>  <SCORE.INTER.POLAR>  (29) 
0

>  <SCORE.INTER.REPUL>  (29) 
0

>  <SCORE.INTER.ROT>  (29) 
7

>  <SCORE.INTER.VDW>  (29) 
-23.7792

>  <SCORE.INTER.norm>  (29) 
-0.517238

>  <SCORE.INTRA>  (29) 
14.8188

>  <SCORE.INTRA.DIHEDRAL>  (29) 
13.8397

>  <SCORE.INTRA.DIHEDRAL.0>  (29) 
3.78927

>  <SCORE.INTRA.POLAR>  (29) 
0

>  <SCORE.INTRA.POLAR.0>  (29) 
0

>  <SCORE.INTRA.REPUL>  (29) 
0

>  <SCORE.INTRA.REPUL.0>  (29) 
0

>  <SCORE.INTRA.VDW>  (29) 
7.8989

>  <SCORE.INTRA.VDW.0>  (29) 
1.02728

>  <SCORE.INTRA.norm>  (29) 
0.67358

>  <SCORE.RESTR>  (29) 
0

>  <SCORE.RESTR.CAVITY>  (29) 
0

>  <SCORE.RESTR.norm>  (29) 
0

>  <SCORE.SYSTEM>  (29) 
-6.92222

>  <SCORE.SYSTEM.CONST>  (29) 
0

>  <SCORE.SYSTEM.DIHEDRAL>  (29) 
4.82899

>  <SCORE.SYSTEM.POLAR>  (29) 
-2.94314

>  <SCORE.SYSTEM.REPUL>  (29) 
0.444535

>  <SCORE.SYSTEM.VDW>  (29) 
-1.5527

>  <SCORE.SYSTEM.norm>  (29) 
-0.314646

>  <SCORE.heavy>  (29) 
22

>  <SCORE.norm>  (29) 
-0.158305

$$$$
denovo_401
     RDKit          3D

 22 23  0  0  0  0  0  0  0  0999 V2000
  -15.1018   17.6083  -14.2561 C   0  0  0  0  0  0  0  0  0  0  0  0
  -14.5299   16.7566  -15.2400 O   0  0  0  0  0  0  0  0  0  0  0  0
  -13.6406   15.8006  -14.6582 C   0  0  0  0  0  0  0  0  0  0  0  0
  -14.3957   14.4907  -14.3435 C   0  0  2  0  0  0  0  0  0  0  0  0
  -14.6073   14.3742  -12.8380 C   0  0  0  0  0  0  0  0  0  0  0  0
  -13.9087   15.2268  -11.9697 C   0  0  0  0  0  0  0  0  0  0  0  0
  -14.0853   15.1356  -10.5880 C   0  0  0  0  0  0  0  0  0  0  0  0
  -14.9607   14.1915  -10.0566 C   0  0  0  0  0  0  0  0  0  0  0  0
  -15.6601   13.3374  -10.9060 C   0  0  0  0  0  0  0  0  0  0  0  0
  -15.4849   13.4265  -12.2881 C   0  0  0  0  0  0  0  0  0  0  0  0
  -13.6905   13.2376  -14.9225 C   0  0  2  0  0  0  0  0  0  0  0  0
  -13.7284   12.0050  -14.0132 C   0  0  0  0  0  0  0  0  0  0  0  0
  -12.5022   11.1641  -14.3820 C   0  0  0  0  0  0  0  0  0  0  0  0
  -11.6878   11.9904  -15.3811 C   0  0  2  0  0  0  0  0  0  0  0  0
  -10.1576   11.9018  -15.2489 C   0  0  0  0  0  0  0  0  0  0  0  0
   -9.2902   12.0118  -16.5495 C   0  0  0  0  0  0  0  0  0  0  0  0
   -9.5616   13.3633  -17.2414 C   0  0  0  0  0  0  0  0  0  0  0  0
   -7.8114   12.0079  -16.0851 C   0  0  0  0  0  0  0  0  0  0  0  0
   -9.5416   10.8323  -17.5410 C   0  0  1  0  0  0  0  0  0  0  0  0
   -8.6166   10.7923  -18.7578 C   0  0  0  0  0  0  0  0  0  0  0  0
   -9.3915    9.5718  -16.8855 O   0  0  0  0  0  0  0  0  0  0  0  0
  -12.1853   13.4221  -15.1427 C   0  0  0  0  0  0  0  0  0  0  0  0
  1  2  1  0
  2  3  1  0
  4  3  1  1
  4  5  1  0
  5  6  2  0
  6  7  1  0
  7  8  2  0
  8  9  1  0
  9 10  2  0
  4 11  1  0
 11 12  1  1
 12 13  1  0
 13 14  1  0
 14 15  1  1
 15 16  1  0
 16 17  1  0
 16 18  1  0
 16 19  1  0
 19 20  1  6
 19 21  1  0
 14 22  1  0
 10  5  1  0
 22 11  1  0
M  END
>  <CHROM.0>  (30) 
33.26950475,63.17668628,-173.85230456,-49.22345726,-179.79283528,-62.37872153
-63.41144387,69.07250076,-158.24636753,68.60237928,65.25481173,178.60436255
-62.81852620,-54.84317029

>  <CHROM.1>  (30) 
92.80060179,-106.49339156,-12.90147591,141.28848823,147.25197370,59.22683192
-173.44532677,171.14087141,-12.40418939,13.28196398,-14.61019446,-3.08103913
-0.81776718,2.53847599

>  <Name>  (30) 
denovo_401

>  <RI>  (30) 
1.14584e+09

>  <Rbt.Current_Directory>  (30) 
/tmp/claude-0/-home-user-Rare-cancers/1af35c7f-7dc4-53ce-91d2-1631a2a10a85/scratchpad/smwork/cross/dock_8XTT-model2

>  <Rbt.Executable>  (30) 
rbdock - v25.07-alpha

>  <Rbt.Library>  (30) 
libRbt.so (25.07, Buildalpha)

>  <Rbt.Parameter_File>  (30) 
/tmp/claude-0/-home-user-Rare-cancers/1af35c7f-7dc4-53ce-91d2-1631a2a10a85/scratchpad/rdroot/share/rDock/data/scripts/dock.prm

>  <Rbt.Receptor>  (30) 
rec.prm

>  <SCORE>  (30) 
-1.6743

>  <SCORE.INTER>  (30) 
-13.5746

>  <SCORE.INTER.CONST>  (30) 
1

>  <SCORE.INTER.POLAR>  (30) 
-0.332229

>  <SCORE.INTER.REPUL>  (30) 
0

>  <SCORE.INTER.ROT>  (30) 
7

>  <SCORE.INTER.VDW>  (30) 
-24.845

>  <SCORE.INTER.norm>  (30) 
-0.617027

>  <SCORE.INTRA>  (30) 
14.2512

>  <SCORE.INTRA.DIHEDRAL>  (30) 
14.2562

>  <SCORE.INTRA.DIHEDRAL.0>  (30) 
3.78927

>  <SCORE.INTRA.POLAR>  (30) 
0

>  <SCORE.INTRA.POLAR.0>  (30) 
0

>  <SCORE.INTRA.REPUL>  (30) 
0

>  <SCORE.INTRA.REPUL.0>  (30) 
0

>  <SCORE.INTRA.VDW>  (30) 
7.12304

>  <SCORE.INTRA.VDW.0>  (30) 
1.02728

>  <SCORE.INTRA.norm>  (30) 
0.64778

>  <SCORE.RESTR>  (30) 
0.0422423

>  <SCORE.RESTR.CAVITY>  (30) 
0.0422423

>  <SCORE.RESTR.norm>  (30) 
0.0019201

>  <SCORE.SYSTEM>  (30) 
-2.39315

>  <SCORE.SYSTEM.CONST>  (30) 
0

>  <SCORE.SYSTEM.DIHEDRAL>  (30) 
4.41419

>  <SCORE.SYSTEM.POLAR>  (30) 
-1.61182

>  <SCORE.SYSTEM.REPUL>  (30) 
0.123701

>  <SCORE.SYSTEM.VDW>  (30) 
0.261453

>  <SCORE.SYSTEM.norm>  (30) 
-0.108779

>  <SCORE.heavy>  (30) 
22

>  <SCORE.norm>  (30) 
-0.0761064

$$$$
denovo_401
     RDKit          3D

 22 23  0  0  0  0  0  0  0  0999 V2000
  -15.6746   18.3503  -14.8895 C   0  0  0  0  0  0  0  0  0  0  0  0
  -15.5377   16.9355  -14.8985 O   0  0  0  0  0  0  0  0  0  0  0  0
  -15.6251   16.3882  -13.5809 C   0  0  0  0  0  0  0  0  0  0  0  0
  -15.0027   14.9753  -13.5468 C   0  0  2  0  0  0  0  0  0  0  0  0
  -15.0509   14.4321  -12.1228 C   0  0  0  0  0  0  0  0  0  0  0  0
  -15.8176   13.2916  -11.8394 C   0  0  0  0  0  0  0  0  0  0  0  0
  -15.8780   12.7790  -10.5424 C   0  0  0  0  0  0  0  0  0  0  0  0
  -15.1745   13.3994   -9.5127 C   0  0  0  0  0  0  0  0  0  0  0  0
  -14.4102   14.5331   -9.7787 C   0  0  0  0  0  0  0  0  0  0  0  0
  -14.3485   15.0478  -11.0749 C   0  0  0  0  0  0  0  0  0  0  0  0
  -13.5657   14.9384  -14.1267 C   0  0  2  0  0  0  0  0  0  0  0  0
  -13.4204   15.5671  -15.5164 C   0  0  0  0  0  0  0  0  0  0  0  0
  -12.2195   14.8792  -16.1731 C   0  0  0  0  0  0  0  0  0  0  0  0
  -11.7847   13.7572  -15.2264 C   0  0  2  0  0  0  0  0  0  0  0  0
  -11.3111   12.4527  -15.8904 C   0  0  0  0  0  0  0  0  0  0  0  0
   -9.9187   12.4460  -16.6096 C   0  0  0  0  0  0  0  0  0  0  0  0
   -9.6731   13.8142  -17.2777 C   0  0  0  0  0  0  0  0  0  0  0  0
   -8.8567   12.2675  -15.4948 C   0  0  0  0  0  0  0  0  0  0  0  0
   -9.7899   11.2968  -17.6587 C   0  0  1  0  0  0  0  0  0  0  0  0
  -10.1152    9.8965  -17.1379 C   0  0  0  0  0  0  0  0  0  0  0  0
  -10.6585   11.5195  -18.7708 O   0  0  0  0  0  0  0  0  0  0  0  0
  -13.0308   13.5219  -14.3627 C   0  0  0  0  0  0  0  0  0  0  0  0
  1  2  1  0
  2  3  1  0
  4  3  1  1
  4  5  1  0
  5  6  2  0
  6  7  1  0
  7  8  2  0
  8  9  1  0
  9 10  2  0
  4 11  1  0
 11 12  1  6
 12 13  1  0
 13 14  1  0
 14 15  1  6
 15 16  1  0
 16 17  1  0
 16 18  1  0
 16 19  1  0
 19 20  1  1
 19 21  1  0
 14 22  1  0
 10  5  1  0
 22 11  1  0
M  END
>  <CHROM.0>  (31) 
-172.63437678,53.70269639,-173.38890297,64.34919725,176.47007364,-65.24820724
-66.16074994,68.93333220,-159.64623858,-62.14469155,-60.49884828,-71.81360869
-54.92570912,-177.49829704

>  <CHROM.1>  (31) 
-160.43324881,177.59216624,116.27734023,-51.73754976,72.43244848,-35.31441841
-52.67107084,71.41754434,-12.98451131,13.93604399,-14.49057751,2.88249478
-0.82904587,2.26409890

>  <Name>  (31) 
denovo_401

>  <RI>  (31) 
1.14584e+09

>  <Rbt.Current_Directory>  (31) 
/tmp/claude-0/-home-user-Rare-cancers/1af35c7f-7dc4-53ce-91d2-1631a2a10a85/scratchpad/smwork/cross/dock_8XTT-model2

>  <Rbt.Executable>  (31) 
rbdock - v25.07-alpha

>  <Rbt.Library>  (31) 
libRbt.so (25.07, Buildalpha)

>  <Rbt.Parameter_File>  (31) 
/tmp/claude-0/-home-user-Rare-cancers/1af35c7f-7dc4-53ce-91d2-1631a2a10a85/scratchpad/rdroot/share/rDock/data/scripts/dock.prm

>  <Rbt.Receptor>  (31) 
rec.prm

>  <SCORE>  (31) 
-0.3427

>  <SCORE.INTER>  (31) 
2.28234

>  <SCORE.INTER.CONST>  (31) 
1

>  <SCORE.INTER.POLAR>  (31) 
-1.26299

>  <SCORE.INTER.REPUL>  (31) 
0.00324172

>  <SCORE.INTER.ROT>  (31) 
7

>  <SCORE.INTER.VDW>  (31) 
-5.83972

>  <SCORE.INTER.norm>  (31) 
0.103743

>  <SCORE.INTRA>  (31) 
5.64889

>  <SCORE.INTRA.DIHEDRAL>  (31) 
2.70555

>  <SCORE.INTRA.DIHEDRAL.0>  (31) 
3.78927

>  <SCORE.INTRA.POLAR>  (31) 
0

>  <SCORE.INTRA.POLAR.0>  (31) 
0

>  <SCORE.INTRA.REPUL>  (31) 
0

>  <SCORE.INTRA.REPUL.0>  (31) 
0

>  <SCORE.INTRA.VDW>  (31) 
4.29612

>  <SCORE.INTRA.VDW.0>  (31) 
1.02728

>  <SCORE.INTRA.norm>  (31) 
0.256768

>  <SCORE.RESTR>  (31) 
0

>  <SCORE.RESTR.CAVITY>  (31) 
0

>  <SCORE.RESTR.norm>  (31) 
0

>  <SCORE.SYSTEM>  (31) 
-8.27394

>  <SCORE.SYSTEM.CONST>  (31) 
0

>  <SCORE.SYSTEM.DIHEDRAL>  (31) 
3.02273

>  <SCORE.SYSTEM.POLAR>  (31) 
-2.95276

>  <SCORE.SYSTEM.VDW>  (31) 
0.254064

>  <SCORE.SYSTEM.norm>  (31) 
-0.376088

>  <SCORE.heavy>  (31) 
22

>  <SCORE.norm>  (31) 
-0.0155778

$$$$
denovo_401
     RDKit          3D

 22 23  0  0  0  0  0  0  0  0999 V2000
  -17.6932   17.7683  -14.6124 C   0  0  0  0  0  0  0  0  0  0  0  0
  -16.4275   17.1522  -14.8091 O   0  0  0  0  0  0  0  0  0  0  0  0
  -15.8035   16.8194  -13.5669 C   0  0  0  0  0  0  0  0  0  0  0  0
  -15.1916   15.4033  -13.6386 C   0  0  2  0  0  0  0  0  0  0  0  0
  -15.2142   14.7682  -12.2525 C   0  0  0  0  0  0  0  0  0  0  0  0
  -14.4408   15.3224  -11.2212 C   0  0  0  0  0  0  0  0  0  0  0  0
  -14.4445   14.7556   -9.9456 C   0  0  0  0  0  0  0  0  0  0  0  0
  -15.2195   13.6281   -9.6845 C   0  0  0  0  0  0  0  0  0  0  0  0
  -15.9913   13.0660  -10.6987 C   0  0  0  0  0  0  0  0  0  0  0  0
  -15.9890   13.6309  -11.9753 C   0  0  0  0  0  0  0  0  0  0  0  0
  -13.7674   15.3952  -14.2504 C   0  0  2  0  0  0  0  0  0  0  0  0
  -13.6782   15.9627  -15.6708 C   0  0  0  0  0  0  0  0  0  0  0  0
  -12.4654   15.2920  -16.3235 C   0  0  0  0  0  0  0  0  0  0  0  0
  -11.9651   14.2339  -15.3365 C   0  0  2  0  0  0  0  0  0  0  0  0
  -11.4543   12.9190  -15.9504 C   0  0  0  0  0  0  0  0  0  0  0  0
   -9.9927   12.8788  -16.5144 C   0  0  0  0  0  0  0  0  0  0  0  0
   -9.7301   14.1378  -17.3656 C   0  0  0  0  0  0  0  0  0  0  0  0
   -9.0521   12.9363  -15.2837 C   0  0  0  0  0  0  0  0  0  0  0  0
   -9.7050   11.5893  -17.3464 C   0  0  1  0  0  0  0  0  0  0  0  0
  -10.1245   10.2765  -16.6841 C   0  0  0  0  0  0  0  0  0  0  0  0
  -10.3778   11.6323  -18.6060 O   0  0  0  0  0  0  0  0  0  0  0  0
  -13.1814   13.9912  -14.4332 C   0  0  0  0  0  0  0  0  0  0  0  0
  1  2  1  0
  2  3  1  0
  4  3  1  1
  4  5  1  0
  5  6  2  0
  6  7  1  0
  7  8  2  0
  8  9  1  0
  9 10  2  0
  4 11  1  0
 11 12  1  6
 12 13  1  0
 13 14  1  0
 14 15  1  6
 15 16  1  0
 16 17  1  0
 16 18  1  0
 16 19  1  0
 19 20  1  1
 19 21  1  0
 14 22  1  0
 10  5  1  0
 22 11  1  0
M  END
>  <CHROM.0>  (32) 
32.55490224,176.93748836,-176.08052569,67.85982870,-177.45731867,-63.85529961
-177.65913283,68.46951930,-157.41892392,65.50783031,65.59262832,-69.60607423
-59.97816356,69.37216297

>  <CHROM.1>  (32) 
136.16242665,-149.87797408,-65.20468646,-58.71349576,81.29433314,-45.49069354
-48.36610355,67.79267837,-13.22263083,14.25171630,-14.48913394,2.82225317
-0.72352527,2.09781330

>  <Name>  (32) 
denovo_401

>  <RI>  (32) 
1.14584e+09

>  <Rbt.Current_Directory>  (32) 
/tmp/claude-0/-home-user-Rare-cancers/1af35c7f-7dc4-53ce-91d2-1631a2a10a85/scratchpad/smwork/cross/dock_8XTT-model2

>  <Rbt.Executable>  (32) 
rbdock - v25.07-alpha

>  <Rbt.Library>  (32) 
libRbt.so (25.07, Buildalpha)

>  <Rbt.Parameter_File>  (32) 
/tmp/claude-0/-home-user-Rare-cancers/1af35c7f-7dc4-53ce-91d2-1631a2a10a85/scratchpad/rdroot/share/rDock/data/scripts/dock.prm

>  <Rbt.Receptor>  (32) 
rec.prm

>  <SCORE>  (32) 
0.0258

>  <SCORE.INTER>  (32) 
0.384375

>  <SCORE.INTER.CONST>  (32) 
1

>  <SCORE.INTER.POLAR>  (32) 
-1.00292

>  <SCORE.INTER.REPUL>  (32) 
0

>  <SCORE.INTER.ROT>  (32) 
7

>  <SCORE.INTER.VDW>  (32) 
-8.60568

>  <SCORE.INTER.norm>  (32) 
0.0174716

>  <SCORE.INTRA>  (32) 
5.77066

>  <SCORE.INTRA.DIHEDRAL>  (32) 
8.97503

>  <SCORE.INTRA.DIHEDRAL.0>  (32) 
3.78927

>  <SCORE.INTRA.POLAR>  (32) 
0

>  <SCORE.INTRA.POLAR.0>  (32) 
0

>  <SCORE.INTRA.REPUL>  (32) 
0

>  <SCORE.INTRA.REPUL.0>  (32) 
0

>  <SCORE.INTRA.VDW>  (32) 
1.28314

>  <SCORE.INTRA.VDW.0>  (32) 
1.02728

>  <SCORE.INTRA.norm>  (32) 
0.262303

>  <SCORE.RESTR>  (32) 
0

>  <SCORE.RESTR.CAVITY>  (32) 
0

>  <SCORE.RESTR.norm>  (32) 
0

>  <SCORE.SYSTEM>  (32) 
-6.1292

>  <SCORE.SYSTEM.CONST>  (32) 
0

>  <SCORE.SYSTEM.DIHEDRAL>  (32) 
4.56025

>  <SCORE.SYSTEM.POLAR>  (32) 
-2.71461

>  <SCORE.SYSTEM.REPUL>  (32) 
0.322082

>  <SCORE.SYSTEM.VDW>  (32) 
-0.790058

>  <SCORE.SYSTEM.norm>  (32) 
-0.2786

>  <SCORE.heavy>  (32) 
22

>  <SCORE.norm>  (32) 
0.00117438

$$$$
denovo_401
     RDKit          3D

 22 23  0  0  0  0  0  0  0  0999 V2000
  -15.2546   17.7186  -14.4350 C   0  0  0  0  0  0  0  0  0  0  0  0
  -14.3333   17.1122  -13.5385 O   0  0  0  0  0  0  0  0  0  0  0  0
  -13.6146   16.0452  -14.1616 C   0  0  0  0  0  0  0  0  0  0  0  0
  -14.4199   14.7308  -14.0656 C   0  0  2  0  0  0  0  0  0  0  0  0
  -14.7095   14.4171  -12.6018 C   0  0  0  0  0  0  0  0  0  0  0  0
  -15.7305   13.5124  -12.2735 C   0  0  0  0  0  0  0  0  0  0  0  0
  -16.0143   13.2128  -10.9399 C   0  0  0  0  0  0  0  0  0  0  0  0
  -15.2828   13.8136   -9.9182 C   0  0  0  0  0  0  0  0  0  0  0  0
  -14.2670   14.7147  -10.2287 C   0  0  0  0  0  0  0  0  0  0  0  0
  -13.9816   15.0162  -11.5616 C   0  0  0  0  0  0  0  0  0  0  0  0
  -13.7210   13.5455  -14.7791 C   0  0  2  0  0  0  0  0  0  0  0  0
  -13.6854   12.2439  -13.9714 C   0  0  0  0  0  0  0  0  0  0  0  0
  -12.4637   11.4654  -14.4692 C   0  0  0  0  0  0  0  0  0  0  0  0
  -11.7205   12.3882  -15.4389 C   0  0  2  0  0  0  0  0  0  0  0  0
  -10.1839   12.3270  -15.3930 C   0  0  0  0  0  0  0  0  0  0  0  0
   -9.4084   12.0729  -16.7309 C   0  0  0  0  0  0  0  0  0  0  0  0
   -7.9621   11.6384  -16.4179 C   0  0  0  0  0  0  0  0  0  0  0  0
  -10.1194   10.8826  -17.4239 C   0  0  0  0  0  0  0  0  0  0  0  0
   -9.4111   13.3182  -17.6727 C   0  0  1  0  0  0  0  0  0  0  0  0
   -9.2109   13.0152  -19.1580 C   0  0  0  0  0  0  0  0  0  0  0  0
  -10.6453   14.0311  -17.5749 O   0  0  0  0  0  0  0  0  0  0  0  0
  -12.2337   13.7838  -15.0606 C   0  0  0  0  0  0  0  0  0  0  0  0
  1  2  1  0
  2  3  1  0
  4  3  1  1
  4  5  1  0
  5  6  2  0
  6  7  1  0
  7  8  2  0
  8  9  1  0
  9 10  2  0
  4 11  1  0
 11 12  1  1
 12 13  1  0
 13 14  1  0
 14 15  1  1
 15 16  1  0
 16 17  1  0
 16 18  1  0
 16 19  1  0
 19 20  1  6
 19 21  1  0
 14 22  1  0
 10  5  1  0
 22 11  1  0
M  END
>  <CHROM.0>  (33) 
-178.56055542,-64.73619760,20.30209482,65.03328948,-67.23508704,-63.10341298
-173.43765472,70.35138716,81.27307341,-163.18344509,66.45862416,-71.18773036
-66.78778933,66.67851231

>  <CHROM.1>  (33) 
-85.82191478,-57.44368054,161.67839540,133.99898502,126.83048793,-163.39006477
-155.90790817,85.93507949,-12.59018825,13.70699897,-14.54094785,3.04414371
-0.82205507,2.56930998

>  <Name>  (33) 
denovo_401

>  <RI>  (33) 
1.14584e+09

>  <Rbt.Current_Directory>  (33) 
/tmp/claude-0/-home-user-Rare-cancers/1af35c7f-7dc4-53ce-91d2-1631a2a10a85/scratchpad/smwork/cross/dock_8XTT-model2

>  <Rbt.Executable>  (33) 
rbdock - v25.07-alpha

>  <Rbt.Library>  (33) 
libRbt.so (25.07, Buildalpha)

>  <Rbt.Parameter_File>  (33) 
/tmp/claude-0/-home-user-Rare-cancers/1af35c7f-7dc4-53ce-91d2-1631a2a10a85/scratchpad/rdroot/share/rDock/data/scripts/dock.prm

>  <Rbt.Receptor>  (33) 
rec.prm

>  <SCORE>  (33) 
0.0864

>  <SCORE.INTER>  (33) 
-19.009

>  <SCORE.INTER.CONST>  (33) 
1

>  <SCORE.INTER.POLAR>  (33) 
-1.12424

>  <SCORE.INTER.REPUL>  (33) 
0.0404201

>  <SCORE.INTER.ROT>  (33) 
7

>  <SCORE.INTER.VDW>  (33) 
-27.7887

>  <SCORE.INTER.norm>  (33) 
-0.864047

>  <SCORE.INTRA>  (33) 
16.8197

>  <SCORE.INTRA.DIHEDRAL>  (33) 
16.9073

>  <SCORE.INTRA.DIHEDRAL.0>  (33) 
3.78927

>  <SCORE.INTRA.POLAR>  (33) 
0

>  <SCORE.INTRA.POLAR.0>  (33) 
0

>  <SCORE.INTRA.REPUL>  (33) 
0

>  <SCORE.INTRA.REPUL.0>  (33) 
0

>  <SCORE.INTRA.VDW>  (33) 
8.36605

>  <SCORE.INTRA.VDW.0>  (33) 
1.02728

>  <SCORE.INTRA.norm>  (33) 
0.764531

>  <SCORE.RESTR>  (33) 
0

>  <SCORE.RESTR.CAVITY>  (33) 
0

>  <SCORE.RESTR.norm>  (33) 
0

>  <SCORE.SYSTEM>  (33) 
2.27579

>  <SCORE.SYSTEM.CONST>  (33) 
0

>  <SCORE.SYSTEM.DIHEDRAL>  (33) 
10.1083

>  <SCORE.SYSTEM.POLAR>  (33) 
-2.6128

>  <SCORE.SYSTEM.REPUL>  (33) 
0.577032

>  <SCORE.SYSTEM.VDW>  (33) 
3.22002

>  <SCORE.SYSTEM.norm>  (33) 
0.103445

>  <SCORE.heavy>  (33) 
22

>  <SCORE.norm>  (33) 
0.00392883

$$$$
denovo_401
     RDKit          3D

 22 23  0  0  0  0  0  0  0  0999 V2000
  -15.1194   17.5021  -14.2472 C   0  0  0  0  0  0  0  0  0  0  0  0
  -14.2053   16.9478  -15.1840 O   0  0  0  0  0  0  0  0  0  0  0  0
  -13.4069   15.9178  -14.5966 C   0  0  0  0  0  0  0  0  0  0  0  0
  -14.2482   14.6383  -14.3963 C   0  0  2  0  0  0  0  0  0  0  0  0
  -14.5666   14.4651  -12.9152 C   0  0  0  0  0  0  0  0  0  0  0  0
  -15.5379   13.5341  -12.5171 C   0  0  0  0  0  0  0  0  0  0  0  0
  -15.8469   13.3612  -11.1668 C   0  0  0  0  0  0  0  0  0  0  0  0
  -15.1906   14.1164  -10.1979 C   0  0  0  0  0  0  0  0  0  0  0  0
  -14.2249   15.0455  -10.5780 C   0  0  0  0  0  0  0  0  0  0  0  0
  -13.9144   15.2204  -11.9278 C   0  0  0  0  0  0  0  0  0  0  0  0
  -13.5714   13.3762  -14.9892 C   0  0  2  0  0  0  0  0  0  0  0  0
  -13.5474   12.1636  -14.0528 C   0  0  0  0  0  0  0  0  0  0  0  0
  -12.3404   11.3207  -14.4761 C   0  0  0  0  0  0  0  0  0  0  0  0
  -11.5923   12.1286  -15.5399 C   0  0  2  0  0  0  0  0  0  0  0  0
  -10.0564   12.0502  -15.4978 C   0  0  0  0  0  0  0  0  0  0  0  0
   -9.3078   11.4396  -16.7319 C   0  0  0  0  0  0  0  0  0  0  0  0
  -10.0663   10.1945  -17.2350 C   0  0  0  0  0  0  0  0  0  0  0  0
   -9.3682   12.5125  -17.8489 C   0  0  0  0  0  0  0  0  0  0  0  0
   -7.8215   11.0809  -16.4159 C   0  0  1  0  0  0  0  0  0  0  0  0
   -6.9953   10.6049  -17.6112 C   0  0  0  0  0  0  0  0  0  0  0  0
   -7.1272   12.2064  -15.8753 O   0  0  0  0  0  0  0  0  0  0  0  0
  -12.0832   13.5629  -15.3032 C   0  0  0  0  0  0  0  0  0  0  0  0
  1  2  1  0
  2  3  1  0
  4  3  1  1
  4  5  1  0
  5  6  2  0
  6  7  1  0
  7  8  2  0
  8  9  1  0
  9 10  2  0
  4 11  1  0
 11 12  1  1
 12 13  1  0
 13 14  1  0
 14 15  1  1
 15 16  1  0
 16 17  1  0
 16 18  1  0
 16 19  1  0
 19 20  1  6
 19 21  1  0
 14 22  1  0
 10  5  1  0
 22 11  1  0
M  END
>  <CHROM.0>  (34) 
-149.68368849,56.11500049,20.77518603,64.09831335,72.28967928,-62.69584634
63.77414151,70.47105869,-157.02868353,-63.60827731,-59.60612095,-70.19962579
-63.41805895,178.17672051

>  <CHROM.1>  (34) 
73.98460276,-106.34665285,167.13771144,132.38074142,117.53966467,-41.70572056
-174.42878505,173.03701146,-12.17976603,13.33576502,-14.59856272,-3.07121082
-0.72561471,2.53635047

>  <Name>  (34) 
denovo_401

>  <RI>  (34) 
1.14584e+09

>  <Rbt.Current_Directory>  (34) 
/tmp/claude-0/-home-user-Rare-cancers/1af35c7f-7dc4-53ce-91d2-1631a2a10a85/scratchpad/smwork/cross/dock_8XTT-model2

>  <Rbt.Executable>  (34) 
rbdock - v25.07-alpha

>  <Rbt.Library>  (34) 
libRbt.so (25.07, Buildalpha)

>  <Rbt.Parameter_File>  (34) 
/tmp/claude-0/-home-user-Rare-cancers/1af35c7f-7dc4-53ce-91d2-1631a2a10a85/scratchpad/rdroot/share/rDock/data/scripts/dock.prm

>  <Rbt.Receptor>  (34) 
rec.prm

>  <SCORE>  (34) 
0.8196

>  <SCORE.INTER>  (34) 
-15.468

>  <SCORE.INTER.CONST>  (34) 
1

>  <SCORE.INTER.POLAR>  (34) 
0

>  <SCORE.INTER.REPUL>  (34) 
0

>  <SCORE.INTER.ROT>  (34) 
7

>  <SCORE.INTER.VDW>  (34) 
-27.868

>  <SCORE.INTER.norm>  (34) 
-0.703089

>  <SCORE.INTRA>  (34) 
16.6961

>  <SCORE.INTRA.DIHEDRAL>  (34) 
15.7011

>  <SCORE.INTRA.DIHEDRAL.0>  (34) 
3.78927

>  <SCORE.INTRA.POLAR>  (34) 
0

>  <SCORE.INTRA.POLAR.0>  (34) 
0

>  <SCORE.INTRA.REPUL>  (34) 
0

>  <SCORE.INTRA.REPUL.0>  (34) 
0

>  <SCORE.INTRA.VDW>  (34) 
8.84555

>  <SCORE.INTRA.VDW.0>  (34) 
1.02728

>  <SCORE.INTRA.norm>  (34) 
0.758913

>  <SCORE.RESTR>  (34) 
0

>  <SCORE.RESTR.CAVITY>  (34) 
0

>  <SCORE.RESTR.norm>  (34) 
0

>  <SCORE.SYSTEM>  (34) 
-0.408551

>  <SCORE.SYSTEM.CONST>  (34) 
0

>  <SCORE.SYSTEM.DIHEDRAL>  (34) 
9.75548

>  <SCORE.SYSTEM.POLAR>  (34) 
-2.8449

>  <SCORE.SYSTEM.REPUL>  (34) 
0.128258

>  <SCORE.SYSTEM.VDW>  (34) 
3.74507

>  <SCORE.SYSTEM.norm>  (34) 
-0.0185705

>  <SCORE.heavy>  (34) 
22

>  <SCORE.norm>  (34) 
0.0372531

$$$$
denovo_401
     RDKit          3D

 22 23  0  0  0  0  0  0  0  0999 V2000
   -0.9907   11.4028  -20.0294 C   0  0  0  0  0  0  0  0  0  0  0  0
   -1.1476   11.0837  -18.6532 O   0  0  0  0  0  0  0  0  0  0  0  0
   -2.3103   10.2839  -18.4259 C   0  0  0  0  0  0  0  0  0  0  0  0
   -3.5878   11.1129  -18.6826 C   0  0  2  0  0  0  0  0  0  0  0  0
   -3.3915   12.5284  -18.1506 C   0  0  0  0  0  0  0  0  0  0  0  0
   -3.2578   12.7398  -16.7700 C   0  0  0  0  0  0  0  0  0  0  0  0
   -3.0799   14.0275  -16.2612 C   0  0  0  0  0  0  0  0  0  0  0  0
   -3.0345   15.1195  -17.1245 C   0  0  0  0  0  0  0  0  0  0  0  0
   -3.1671   14.9253  -18.4974 C   0  0  0  0  0  0  0  0  0  0  0  0
   -3.3454   13.6385  -19.0086 C   0  0  0  0  0  0  0  0  0  0  0  0
   -4.8607   10.4509  -18.0961 C   0  0  2  0  0  0  0  0  0  0  0  0
   -5.3775    9.2454  -18.8881 C   0  0  0  0  0  0  0  0  0  0  0  0
   -6.8816    9.1640  -18.6095 C   0  0  0  0  0  0  0  0  0  0  0  0
   -7.2446   10.4076  -17.7936 C   0  0  2  0  0  0  0  0  0  0  0  0
   -8.6031   11.0563  -18.1109 C   0  0  0  0  0  0  0  0  0  0  0  0
   -9.4144   11.6992  -16.9342 C   0  0  0  0  0  0  0  0  0  0  0  0
   -8.4415   12.3279  -15.9158 C   0  0  0  0  0  0  0  0  0  0  0  0
  -10.2491   12.8457  -17.5596 C   0  0  0  0  0  0  0  0  0  0  0  0
  -10.3581   10.6766  -16.2259 C   0  0  1  0  0  0  0  0  0  0  0  0
  -11.2928   11.2708  -15.1718 C   0  0  0  0  0  0  0  0  0  0  0  0
  -11.1971   10.0135  -17.1732 O   0  0  0  0  0  0  0  0  0  0  0  0
   -6.0862   11.3707  -18.0845 C   0  0  0  0  0  0  0  0  0  0  0  0
  1  2  1  0
  2  3  1  0
  4  3  1  1
  4  5  1  0
  5  6  2  0
  6  7  1  0
  7  8  2  0
  8  9  1  0
  9 10  2  0
  4 11  1  0
 11 12  1  6
 12 13  1  0
 13 14  1  0
 14 15  1  6
 15 16  1  0
 16 17  1  0
 16 18  1  0
 16 19  1  0
 19 20  1  1
 19 21  1  0
 14 22  1  0
 10  5  1  0
 22 11  1  0
M  END
>  <CHROM.0>  (35) 
-85.07483613,-60.33545373,-175.64032515,149.09227044,-68.83020858,62.81691779
-67.00788265,-50.23820799,-41.98227567,61.60442091,-64.26596926,54.24749029
65.18648443,173.84711318

>  <CHROM.1>  (35) 
-68.61217536,-39.32366302,-66.46947557,-74.84600875,144.93863148,34.70868784
-173.47661080,161.55654660,-5.86262596,11.64858538,-17.73281025,-0.07068644
-0.25871372,-2.76286302

>  <Name>  (35) 
denovo_401

>  <RI>  (35) 
1.14584e+09

>  <Rbt.Current_Directory>  (35) 
/tmp/claude-0/-home-user-Rare-cancers/1af35c7f-7dc4-53ce-91d2-1631a2a10a85/scratchpad/smwork/cross/dock_8XTT-model2

>  <Rbt.Executable>  (35) 
rbdock - v25.07-alpha

>  <Rbt.Library>  (35) 
libRbt.so (25.07, Buildalpha)

>  <Rbt.Parameter_File>  (35) 
/tmp/claude-0/-home-user-Rare-cancers/1af35c7f-7dc4-53ce-91d2-1631a2a10a85/scratchpad/rdroot/share/rDock/data/scripts/dock.prm

>  <Rbt.Receptor>  (35) 
rec.prm

>  <SCORE>  (35) 
3.2995

>  <SCORE.INTER>  (35) 
-7.28837

>  <SCORE.INTER.CONST>  (35) 
1

>  <SCORE.INTER.POLAR>  (35) 
-1.18469

>  <SCORE.INTER.REPUL>  (35) 
0.503231

>  <SCORE.INTER.ROT>  (35) 
7

>  <SCORE.INTER.VDW>  (35) 
-18.1766

>  <SCORE.INTER.norm>  (35) 
-0.33129

>  <SCORE.INTRA>  (35) 
7.1987

>  <SCORE.INTRA.DIHEDRAL>  (35) 
8.45754

>  <SCORE.INTRA.DIHEDRAL.0>  (35) 
3.78927

>  <SCORE.INTRA.POLAR>  (35) 
0

>  <SCORE.INTRA.POLAR.0>  (35) 
0

>  <SCORE.INTRA.REPUL>  (35) 
0

>  <SCORE.INTRA.REPUL.0>  (35) 
0

>  <SCORE.INTRA.VDW>  (35) 
2.96993

>  <SCORE.INTRA.VDW.0>  (35) 
1.02728

>  <SCORE.INTRA.norm>  (35) 
0.327214

>  <SCORE.RESTR>  (35) 
0.0265904

>  <SCORE.RESTR.CAVITY>  (35) 
0.0265904

>  <SCORE.RESTR.norm>  (35) 
0.00120866

>  <SCORE.SYSTEM>  (35) 
3.36256

>  <SCORE.SYSTEM.CONST>  (35) 
0

>  <SCORE.SYSTEM.DIHEDRAL>  (35) 
11.0587

>  <SCORE.SYSTEM.POLAR>  (35) 
-0.868979

>  <SCORE.SYSTEM.REPUL>  (35) 
0.29782

>  <SCORE.SYSTEM.VDW>  (35) 
-0.70136

>  <SCORE.SYSTEM.norm>  (35) 
0.152844

>  <SCORE.heavy>  (35) 
22

>  <SCORE.norm>  (35) 
0.149976

$$$$
denovo_401
     RDKit          3D

 22 23  0  0  0  0  0  0  0  0999 V2000
  -15.6426   18.2974  -14.9501 C   0  0  0  0  0  0  0  0  0  0  0  0
  -15.4506   16.8892  -14.9269 O   0  0  0  0  0  0  0  0  0  0  0  0
  -15.4216   16.3822  -13.5907 C   0  0  0  0  0  0  0  0  0  0  0  0
  -14.9273   14.9191  -13.5849 C   0  0  2  0  0  0  0  0  0  0  0  0
  -15.0495   14.3461  -12.1771 C   0  0  0  0  0  0  0  0  0  0  0  0
  -15.8593   13.2226  -11.9517 C   0  0  0  0  0  0  0  0  0  0  0  0
  -15.9875   12.6833  -10.6705 C   0  0  0  0  0  0  0  0  0  0  0  0
  -15.3098   13.2599   -9.5990 C   0  0  0  0  0  0  0  0  0  0  0  0
  -14.5033   14.3764   -9.8072 C   0  0  0  0  0  0  0  0  0  0  0  0
  -14.3737   14.9176  -11.0875 C   0  0  0  0  0  0  0  0  0  0  0  0
  -13.4888   14.7694  -14.1425 C   0  0  2  0  0  0  0  0  0  0  0  0
  -13.2959   15.3022  -15.5661 C   0  0  0  0  0  0  0  0  0  0  0  0
  -12.1277   14.5116  -16.1635 C   0  0  0  0  0  0  0  0  0  0  0  0
  -11.7637   13.4288  -15.1442 C   0  0  2  0  0  0  0  0  0  0  0  0
  -11.3551   12.0622  -15.7206 C   0  0  0  0  0  0  0  0  0  0  0  0
   -9.8709   11.8624  -16.1825 C   0  0  0  0  0  0  0  0  0  0  0  0
   -8.9139   12.2674  -15.0429 C   0  0  0  0  0  0  0  0  0  0  0  0
   -9.6952   10.3422  -16.4287 C   0  0  0  0  0  0  0  0  0  0  0  0
   -9.5346   12.6565  -17.4840 C   0  0  1  0  0  0  0  0  0  0  0  0
   -8.3460   12.1250  -18.2856 C   0  0  0  0  0  0  0  0  0  0  0  0
  -10.6472   12.6648  -18.3803 O   0  0  0  0  0  0  0  0  0  0  0  0
  -13.0292   13.3145  -14.2841 C   0  0  0  0  0  0  0  0  0  0  0  0
  1  2  1  0
  2  3  1  0
  4  3  1  1
  4  5  1  0
  5  6  2  0
  6  7  1  0
  7  8  2  0
  8  9  1  0
  9 10  2  0
  4 11  1  0
 11 12  1  6
 12 13  1  0
 13 14  1  0
 14 15  1  6
 15 16  1  0
 16 17  1  0
 16 18  1  0
 16 19  1  0
 19 20  1  6
 19 21  1  0
 14 22  1  0
 10  5  1  0
 22 11  1  0
M  END
>  <CHROM.0>  (36) 
-170.59761123,52.13586736,-60.97046909,63.67781221,-179.05101324,-62.77867734
67.90554313,-158.54753021,-33.00083008,-165.69683411,-177.34645150,-176.18298201
178.16174413,-59.64609322

>  <CHROM.1>  (36) 
-168.39825043,-173.75394192,119.97619213,-57.17172043,83.38646970,52.43133230
-157.43944561,172.08054549,-12.87442445,13.85893012,-14.44957190,2.85634676
-0.75526965,2.23455622

>  <Name>  (36) 
denovo_401

>  <RI>  (36) 
1.14584e+09

>  <Rbt.Current_Directory>  (36) 
/tmp/claude-0/-home-user-Rare-cancers/1af35c7f-7dc4-53ce-91d2-1631a2a10a85/scratchpad/smwork/cross/dock_8XTT-model2

>  <Rbt.Executable>  (36) 
rbdock - v25.07-alpha

>  <Rbt.Library>  (36) 
libRbt.so (25.07, Buildalpha)

>  <Rbt.Parameter_File>  (36) 
/tmp/claude-0/-home-user-Rare-cancers/1af35c7f-7dc4-53ce-91d2-1631a2a10a85/scratchpad/rdroot/share/rDock/data/scripts/dock.prm

>  <Rbt.Receptor>  (36) 
rec.prm

>  <SCORE>  (36) 
3.3896

>  <SCORE.INTER>  (36) 
2.77834

>  <SCORE.INTER.CONST>  (36) 
1

>  <SCORE.INTER.POLAR>  (36) 
-1.10287

>  <SCORE.INTER.REPUL>  (36) 
0

>  <SCORE.INTER.ROT>  (36) 
7

>  <SCORE.INTER.VDW>  (36) 
-5.87192

>  <SCORE.INTER.norm>  (36) 
0.126288

>  <SCORE.INTRA>  (36) 
3.80954

>  <SCORE.INTRA.DIHEDRAL>  (36) 
2.55963

>  <SCORE.INTRA.DIHEDRAL.0>  (36) 
3.78927

>  <SCORE.INTRA.POLAR>  (36) 
0

>  <SCORE.INTRA.POLAR.0>  (36) 
0

>  <SCORE.INTRA.REPUL>  (36) 
0

>  <SCORE.INTRA.REPUL.0>  (36) 
0

>  <SCORE.INTRA.VDW>  (36) 
2.52972

>  <SCORE.INTRA.VDW.0>  (36) 
1.02728

>  <SCORE.INTRA.norm>  (36) 
0.173161

>  <SCORE.RESTR>  (36) 
0

>  <SCORE.RESTR.CAVITY>  (36) 
0

>  <SCORE.RESTR.norm>  (36) 
0

>  <SCORE.SYSTEM>  (36) 
-3.1983

>  <SCORE.SYSTEM.CONST>  (36) 
0

>  <SCORE.SYSTEM.DIHEDRAL>  (36) 
5.33767

>  <SCORE.SYSTEM.POLAR>  (36) 
-2.19316

>  <SCORE.SYSTEM.REPUL>  (36) 
0.555654

>  <SCORE.SYSTEM.VDW>  (36) 
-1.18866

>  <SCORE.SYSTEM.norm>  (36) 
-0.145377

>  <SCORE.heavy>  (36) 
22

>  <SCORE.norm>  (36) 
0.154072

$$$$
denovo_401
     RDKit          3D

 22 23  0  0  0  0  0  0  0  0999 V2000
   -6.3317    6.6715  -19.6750 C   0  0  0  0  0  0  0  0  0  0  0  0
   -6.4514    8.0537  -19.9842 O   0  0  0  0  0  0  0  0  0  0  0  0
   -7.4372    8.6934  -19.1704 C   0  0  0  0  0  0  0  0  0  0  0  0
   -6.8112    9.1549  -17.8362 C   0  0  2  0  0  0  0  0  0  0  0  0
   -7.7268   10.1767  -17.1709 C   0  0  0  0  0  0  0  0  0  0  0  0
   -7.1783   11.1615  -16.3352 C   0  0  0  0  0  0  0  0  0  0  0  0
   -7.9983   12.1051  -15.7141 C   0  0  0  0  0  0  0  0  0  0  0  0
   -9.3757   12.0762  -15.9188 C   0  0  0  0  0  0  0  0  0  0  0  0
   -9.9347   11.1037  -16.7446 C   0  0  0  0  0  0  0  0  0  0  0  0
   -9.1167   10.1588  -17.3667 C   0  0  0  0  0  0  0  0  0  0  0  0
   -5.3703    9.7004  -18.0063 C   0  0  2  0  0  0  0  0  0  0  0  0
   -4.6090    9.9162  -16.6943 C   0  0  0  0  0  0  0  0  0  0  0  0
   -3.5782   11.0143  -16.9741 C   0  0  0  0  0  0  0  0  0  0  0  0
   -3.8589   11.5298  -18.3882 C   0  0  2  0  0  0  0  0  0  0  0  0
   -3.6847   13.0425  -18.6075 C   0  0  0  0  0  0  0  0  0  0  0  0
   -2.2598   13.6644  -18.4101 C   0  0  0  0  0  0  0  0  0  0  0  0
   -1.8673   13.5998  -16.9200 C   0  0  0  0  0  0  0  0  0  0  0  0
   -1.2790   12.7574  -19.1963 C   0  0  0  0  0  0  0  0  0  0  0  0
   -2.1668   15.1320  -18.9346 C   0  0  1  0  0  0  0  0  0  0  0  0
   -2.2587   15.2911  -20.4526 C   0  0  0  0  0  0  0  0  0  0  0  0
   -3.2108   15.9385  -18.3862 O   0  0  0  0  0  0  0  0  0  0  0  0
   -5.3081   11.0938  -18.6411 C   0  0  0  0  0  0  0  0  0  0  0  0
  1  2  1  0
  2  3  1  0
  4  3  1  6
  4  5  1  0
  5  6  2  0
  6  7  1  0
  7  8  2  0
  8  9  1  0
  9 10  2  0
  4 11  1  0
 11 12  1  1
 12 13  1  0
 13 14  1  0
 14 15  1  1
 15 16  1  0
 16 17  1  0
 16 18  1  0
 16 19  1  0
 19 20  1  6
 19 21  1  0
 14 22  1  0
 10  5  1  0
 22 11  1  0
M  END
>  <CHROM.0>  (37) 
30.90396545,55.74216033,-62.16649661,-51.94438330,-172.86468576,-64.72938138
-65.91827345,-50.73686949,-41.87740077,-167.57568676,-171.17464843,-73.21187416
66.99745787,-57.14910325

>  <CHROM.1>  (37) 
86.10119900,163.24800070,-151.16513381,-168.73094395,62.90874192,-68.03663190
-68.71049045,63.96522762,-5.26850667,11.48352693,-18.03086766,-2.55010684
0.44141008,0.37080360

>  <Name>  (37) 
denovo_401

>  <RI>  (37) 
1.14584e+09

>  <Rbt.Current_Directory>  (37) 
/tmp/claude-0/-home-user-Rare-cancers/1af35c7f-7dc4-53ce-91d2-1631a2a10a85/scratchpad/smwork/cross/dock_8XTT-model2

>  <Rbt.Executable>  (37) 
rbdock - v25.07-alpha

>  <Rbt.Library>  (37) 
libRbt.so (25.07, Buildalpha)

>  <Rbt.Parameter_File>  (37) 
/tmp/claude-0/-home-user-Rare-cancers/1af35c7f-7dc4-53ce-91d2-1631a2a10a85/scratchpad/rdroot/share/rDock/data/scripts/dock.prm

>  <Rbt.Receptor>  (37) 
rec.prm

>  <SCORE>  (37) 
3.9452

>  <SCORE.INTER>  (37) 
-0.866702

>  <SCORE.INTER.CONST>  (37) 
1

>  <SCORE.INTER.POLAR>  (37) 
0

>  <SCORE.INTER.REPUL>  (37) 
0

>  <SCORE.INTER.ROT>  (37) 
7

>  <SCORE.INTER.VDW>  (37) 
-13.2667

>  <SCORE.INTER.norm>  (37) 
-0.0393955

>  <SCORE.INTRA>  (37) 
7.07727

>  <SCORE.INTRA.DIHEDRAL>  (37) 
2.56599

>  <SCORE.INTRA.DIHEDRAL.0>  (37) 
3.78927

>  <SCORE.INTRA.POLAR>  (37) 
0

>  <SCORE.INTRA.POLAR.0>  (37) 
0

>  <SCORE.INTRA.REPUL>  (37) 
0

>  <SCORE.INTRA.REPUL.0>  (37) 
0

>  <SCORE.INTRA.VDW>  (37) 
5.79427

>  <SCORE.INTRA.VDW.0>  (37) 
1.02728

>  <SCORE.INTRA.norm>  (37) 
0.321694

>  <SCORE.RESTR>  (37) 
1.17437

>  <SCORE.RESTR.CAVITY>  (37) 
1.17437

>  <SCORE.RESTR.norm>  (37) 
0.0533806

>  <SCORE.SYSTEM>  (37) 
-3.43973

>  <SCORE.SYSTEM.CONST>  (37) 
0

>  <SCORE.SYSTEM.DIHEDRAL>  (37) 
5.56751

>  <SCORE.SYSTEM.POLAR>  (37) 
-2.32187

>  <SCORE.SYSTEM.REPUL>  (37) 
0.438309

>  <SCORE.SYSTEM.VDW>  (37) 
-0.520671

>  <SCORE.SYSTEM.norm>  (37) 
-0.156351

>  <SCORE.heavy>  (37) 
22

>  <SCORE.norm>  (37) 
0.179328

$$$$
denovo_401
     RDKit          3D

 22 23  0  0  0  0  0  0  0  0999 V2000
   -9.8315   13.1196  -19.9488 C   0  0  0  0  0  0  0  0  0  0  0  0
   -9.1508   13.7311  -18.8611 O   0  0  0  0  0  0  0  0  0  0  0  0
   -9.9970   13.8651  -17.7169 C   0  0  0  0  0  0  0  0  0  0  0  0
  -10.3484   12.4738  -17.1462 C   0  0  2  0  0  0  0  0  0  0  0  0
  -11.3983   12.6234  -16.0505 C   0  0  0  0  0  0  0  0  0  0  0  0
  -11.7283   11.5203  -15.2486 C   0  0  0  0  0  0  0  0  0  0  0  0
  -12.6884   11.6343  -14.2417 C   0  0  0  0  0  0  0  0  0  0  0  0
  -13.3312   12.8505  -14.0240 C   0  0  0  0  0  0  0  0  0  0  0  0
  -13.0150   13.9540  -14.8130 C   0  0  0  0  0  0  0  0  0  0  0  0
  -12.0554   13.8424  -15.8209 C   0  0  0  0  0  0  0  0  0  0  0  0
   -9.1030   11.6985  -16.6456 C   0  0  2  0  0  0  0  0  0  0  0  0
   -8.4631   12.2679  -15.3752 C   0  0  0  0  0  0  0  0  0  0  0  0
   -6.9874   11.8596  -15.4202 C   0  0  0  0  0  0  0  0  0  0  0  0
   -6.7557   11.2006  -16.7826 C   0  0  2  0  0  0  0  0  0  0  0  0
   -5.4060   11.4952  -17.4596 C   0  0  0  0  0  0  0  0  0  0  0  0
   -4.3461   10.3435  -17.5398 C   0  0  0  0  0  0  0  0  0  0  0  0
   -4.0479    9.8131  -16.1226 C   0  0  0  0  0  0  0  0  0  0  0  0
   -5.0124    9.1972  -18.3425 C   0  0  0  0  0  0  0  0  0  0  0  0
   -3.0255   10.7902  -18.2430 C   0  0  1  0  0  0  0  0  0  0  0  0
   -3.2036   11.4468  -19.6124 C   0  0  0  0  0  0  0  0  0  0  0  0
   -2.3115   11.7318  -17.4401 O   0  0  0  0  0  0  0  0  0  0  0  0
   -7.9272   11.7176  -17.6280 C   0  0  0  0  0  0  0  0  0  0  0  0
  1  2  1  0
  2  3  1  0
  4  3  1  1
  4  5  1  0
  5  6  2  0
  6  7  1  0
  7  8  2  0
  8  9  1  0
  9 10  2  0
  4 11  1  0
 11 12  1  1
 12 13  1  0
 13 14  1  0
 14 15  1  6
 15 16  1  0
 16 17  1  0
 16 18  1  0
 16 19  1  0
 19 20  1  6
 19 21  1  0
 14 22  1  0
 10  5  1  0
 22 11  1  0
M  END
>  <CHROM.0>  (38) 
174.96461751,177.22603919,179.93213825,63.70970913,-178.49486881,-63.77742848
-179.21933209,71.79232485,80.71602539,63.51130453,64.88123327,-176.24278672
-173.47686967,65.69652584

>  <CHROM.1>  (38) 
66.93291042,-172.31737734,-170.50842430,70.10729652,108.78307126,-56.23813129
-52.05574816,170.57850596,-8.04182377,11.95678855,-16.91156278,3.00407796
-0.33570507,2.01025288

>  <Name>  (38) 
denovo_401

>  <RI>  (38) 
1.14584e+09

>  <Rbt.Current_Directory>  (38) 
/tmp/claude-0/-home-user-Rare-cancers/1af35c7f-7dc4-53ce-91d2-1631a2a10a85/scratchpad/smwork/cross/dock_8XTT-model2

>  <Rbt.Executable>  (38) 
rbdock - v25.07-alpha

>  <Rbt.Library>  (38) 
libRbt.so (25.07, Buildalpha)

>  <Rbt.Parameter_File>  (38) 
/tmp/claude-0/-home-user-Rare-cancers/1af35c7f-7dc4-53ce-91d2-1631a2a10a85/scratchpad/rdroot/share/rDock/data/scripts/dock.prm

>  <Rbt.Receptor>  (38) 
rec.prm

>  <SCORE>  (38) 
3.9561

>  <SCORE.INTER>  (38) 
2.60427

>  <SCORE.INTER.CONST>  (38) 
1

>  <SCORE.INTER.POLAR>  (38) 
-0.467186

>  <SCORE.INTER.REPUL>  (38) 
0

>  <SCORE.INTER.ROT>  (38) 
7

>  <SCORE.INTER.VDW>  (38) 
-8.2073

>  <SCORE.INTER.norm>  (38) 
0.118376

>  <SCORE.INTRA>  (38) 
8.4053

>  <SCORE.INTRA.DIHEDRAL>  (38) 
4.58714

>  <SCORE.INTRA.DIHEDRAL.0>  (38) 
3.78927

>  <SCORE.INTRA.POLAR>  (38) 
0

>  <SCORE.INTRA.POLAR.0>  (38) 
0

>  <SCORE.INTRA.REPUL>  (38) 
0

>  <SCORE.INTRA.REPUL.0>  (38) 
0

>  <SCORE.INTRA.VDW>  (38) 
6.11173

>  <SCORE.INTRA.VDW.0>  (38) 
1.02728

>  <SCORE.INTRA.norm>  (38) 
0.382059

>  <SCORE.RESTR>  (38) 
0.00526681

>  <SCORE.RESTR.CAVITY>  (38) 
0.00526681

>  <SCORE.RESTR.norm>  (38) 
0.0002394

>  <SCORE.SYSTEM>  (38) 
-7.05877

>  <SCORE.SYSTEM.CONST>  (38) 
0

>  <SCORE.SYSTEM.DIHEDRAL>  (38) 
2.43349

>  <SCORE.SYSTEM.POLAR>  (38) 
-2.32276

>  <SCORE.SYSTEM.REPUL>  (38) 
0.314472

>  <SCORE.SYSTEM.VDW>  (38) 
-1.95049

>  <SCORE.SYSTEM.norm>  (38) 
-0.320853

>  <SCORE.heavy>  (38) 
22

>  <SCORE.norm>  (38) 
0.179821

$$$$
denovo_401
     RDKit          3D

 22 23  0  0  0  0  0  0  0  0999 V2000
  -15.4514   11.5991  -14.6379 C   0  0  0  0  0  0  0  0  0  0  0  0
  -15.4615   12.6297  -13.6590 O   0  0  0  0  0  0  0  0  0  0  0  0
  -14.2492   12.6507  -12.9020 C   0  0  0  0  0  0  0  0  0  0  0  0
  -13.1419   13.3880  -13.6865 C   0  0  2  0  0  0  0  0  0  0  0  0
  -13.6543   14.7549  -14.1271 C   0  0  0  0  0  0  0  0  0  0  0  0
  -14.3013   15.5865  -13.2005 C   0  0  0  0  0  0  0  0  0  0  0  0
  -14.7804   16.8406  -13.5830 C   0  0  0  0  0  0  0  0  0  0  0  0
  -14.6204   17.2789  -14.8954 C   0  0  0  0  0  0  0  0  0  0  0  0
  -13.9814   16.4638  -15.8267 C   0  0  0  0  0  0  0  0  0  0  0  0
  -13.5016   15.2091  -15.4466 C   0  0  0  0  0  0  0  0  0  0  0  0
  -12.6044   12.5634  -14.8839 C   0  0  2  0  0  0  0  0  0  0  0  0
  -12.2295   11.1164  -14.5473 C   0  0  0  0  0  0  0  0  0  0  0  0
  -11.1604   10.7044  -15.5640 C   0  0  0  0  0  0  0  0  0  0  0  0
  -10.8157   11.9589  -16.3712 C   0  0  2  0  0  0  0  0  0  0  0  0
   -9.3369   12.1337  -16.7577 C   0  0  0  0  0  0  0  0  0  0  0  0
   -8.7950   11.3506  -18.0024 C   0  0  0  0  0  0  0  0  0  0  0  0
   -9.2257   12.0708  -19.2964 C   0  0  0  0  0  0  0  0  0  0  0  0
   -7.2489   11.4183  -17.9167 C   0  0  0  0  0  0  0  0  0  0  0  0
   -9.2638    9.8615  -18.0261 C   0  0  1  0  0  0  0  0  0  0  0  0
   -8.7039    9.0179  -19.1718 C   0  0  0  0  0  0  0  0  0  0  0  0
   -8.8952    9.1897  -16.8203 O   0  0  0  0  0  0  0  0  0  0  0  0
  -11.2937   13.1025  -15.4666 C   0  0  0  0  0  0  0  0  0  0  0  0
  1  2  1  0
  2  3  1  0
  4  3  1  6
  4  5  1  0
  5  6  2  0
  6  7  1  0
  7  8  2  0
  8  9  1  0
  9 10  2  0
  4 11  1  0
 11 12  1  1
 12 13  1  0
 13 14  1  0
 14 15  1  1
 15 16  1  0
 16 17  1  0
 16 18  1  0
 16 19  1  0
 19 20  1  6
 19 21  1  0
 14 22  1  0
 10  5  1  0
 22 11  1  0
M  END
>  <CHROM.0>  (39) 
-162.13567038,-65.19213199,-60.29347373,-50.99381628,-61.34500567,-66.27083212
-63.40718841,72.76604413,-156.61081967,63.21971976,-61.32047034,-70.90025048
179.32632923,174.92811747

>  <CHROM.1>  (39) 
80.98380323,52.34125152,47.94039712,-49.09461542,81.04078338,78.55182744
-176.59970454,177.04034721,-11.89009442,12.65479884,-15.70993184,2.66640646
0.68073447,-0.17496769

>  <Name>  (39) 
denovo_401

>  <RI>  (39) 
1.14584e+09

>  <Rbt.Current_Directory>  (39) 
/tmp/claude-0/-home-user-Rare-cancers/1af35c7f-7dc4-53ce-91d2-1631a2a10a85/scratchpad/smwork/cross/dock_8XTT-model2

>  <Rbt.Executable>  (39) 
rbdock - v25.07-alpha

>  <Rbt.Library>  (39) 
libRbt.so (25.07, Buildalpha)

>  <Rbt.Parameter_File>  (39) 
/tmp/claude-0/-home-user-Rare-cancers/1af35c7f-7dc4-53ce-91d2-1631a2a10a85/scratchpad/rdroot/share/rDock/data/scripts/dock.prm

>  <Rbt.Receptor>  (39) 
rec.prm

>  <SCORE>  (39) 
4.5395

>  <SCORE.INTER>  (39) 
4.76418

>  <SCORE.INTER.CONST>  (39) 
1

>  <SCORE.INTER.POLAR>  (39) 
0

>  <SCORE.INTER.REPUL>  (39) 
0

>  <SCORE.INTER.ROT>  (39) 
7

>  <SCORE.INTER.VDW>  (39) 
-7.63582

>  <SCORE.INTER.norm>  (39) 
0.216553

>  <SCORE.INTRA>  (39) 
5.57577

>  <SCORE.INTRA.DIHEDRAL>  (39) 
2.81189

>  <SCORE.INTRA.DIHEDRAL.0>  (39) 
3.78927

>  <SCORE.INTRA.POLAR>  (39) 
0

>  <SCORE.INTRA.POLAR.0>  (39) 
0

>  <SCORE.INTRA.REPUL>  (39) 
0

>  <SCORE.INTRA.REPUL.0>  (39) 
0

>  <SCORE.INTRA.VDW>  (39) 
4.16983

>  <SCORE.INTRA.VDW.0>  (39) 
1.02728

>  <SCORE.INTRA.norm>  (39) 
0.253444

>  <SCORE.RESTR>  (39) 
0.723771

>  <SCORE.RESTR.CAVITY>  (39) 
0.723771

>  <SCORE.RESTR.norm>  (39) 
0.0328987

>  <SCORE.SYSTEM>  (39) 
-6.52421

>  <SCORE.SYSTEM.CONST>  (39) 
0

>  <SCORE.SYSTEM.DIHEDRAL>  (39) 
3.88916

>  <SCORE.SYSTEM.POLAR>  (39) 
-2.4014

>  <SCORE.SYSTEM.REPUL>  (39) 
0.263254

>  <SCORE.SYSTEM.VDW>  (39) 
-1.62032

>  <SCORE.SYSTEM.norm>  (39) 
-0.296555

>  <SCORE.heavy>  (39) 
22

>  <SCORE.norm>  (39) 
0.206341

$$$$
denovo_401
     RDKit          3D

 22 23  0  0  0  0  0  0  0  0999 V2000
  -16.6951   17.4758  -14.6025 C   0  0  0  0  0  0  0  0  0  0  0  0
  -15.4595   17.2863  -15.2791 O   0  0  0  0  0  0  0  0  0  0  0  0
  -14.4204   16.8920  -14.3801 C   0  0  0  0  0  0  0  0  0  0  0  0
  -14.2146   15.3625  -14.4391 C   0  0  2  0  0  0  0  0  0  0  0  0
  -14.5669   14.7491  -13.0883 C   0  0  0  0  0  0  0  0  0  0  0  0
  -14.2394   15.4329  -11.9076 C   0  0  0  0  0  0  0  0  0  0  0  0
  -14.5502   14.8885  -10.6603 C   0  0  0  0  0  0  0  0  0  0  0  0
  -15.1907   13.6545  -10.5769 C   0  0  0  0  0  0  0  0  0  0  0  0
  -15.5208   12.9634  -11.7403 C   0  0  0  0  0  0  0  0  0  0  0  0
  -15.2108   13.5056  -12.9888 C   0  0  0  0  0  0  0  0  0  0  0  0
  -12.7870   14.9662  -14.8945 C   0  0  2  0  0  0  0  0  0  0  0  0
  -12.4521   15.3355  -16.3433 C   0  0  0  0  0  0  0  0  0  0  0  0
  -11.3811   14.3407  -16.8012 C   0  0  0  0  0  0  0  0  0  0  0  0
  -11.2244   13.3153  -15.6751 C   0  0  2  0  0  0  0  0  0  0  0  0
  -10.9874   11.8587  -16.1100 C   0  0  0  0  0  0  0  0  0  0  0  0
   -9.6209   11.4964  -16.7864 C   0  0  0  0  0  0  0  0  0  0  0  0
   -8.4600   11.8623  -15.8392 C   0  0  0  0  0  0  0  0  0  0  0  0
   -9.6197    9.9564  -16.9618 C   0  0  0  0  0  0  0  0  0  0  0  0
   -9.4332   12.1917  -18.1717 C   0  0  1  0  0  0  0  0  0  0  0  0
   -8.1333   11.8536  -18.9023 C   0  0  0  0  0  0  0  0  0  0  0  0
  -10.4932   11.8467  -19.0652 O   0  0  0  0  0  0  0  0  0  0  0  0
  -12.5331   13.4550  -14.8864 C   0  0  0  0  0  0  0  0  0  0  0  0
  1  2  1  0
  2  3  1  0
  4  3  1  1
  4  5  1  0
  5  6  2  0
  6  7  1  0
  7  8  2  0
  8  9  1  0
  9 10  2  0
  4 11  1  0
 11 12  1  6
 12 13  1  0
 13 14  1  0
 14 15  1  6
 15 16  1  0
 16 17  1  0
 16 18  1  0
 16 19  1  0
 19 20  1  6
 19 21  1  0
 14 22  1  0
 10  5  1  0
 22 11  1  0
M  END
>  <CHROM.0>  (40) 
-74.23216127,-62.17790509,-174.29986918,65.91022827,178.63518462,-64.67268458
-66.68965750,-50.11343590,-32.57345179,-66.84045223,-62.54534564,-72.50979011
-58.74135721,-178.89329548

>  <CHROM.1>  (40) 
99.11514705,-115.77848060,-37.56279929,-66.42043664,68.95898507,57.75470849
-178.58358030,171.59562366,-12.54954614,13.84414530,-15.11672276,2.95362223
-0.79345438,2.21434937

>  <Name>  (40) 
denovo_401

>  <RI>  (40) 
1.14584e+09

>  <Rbt.Current_Directory>  (40) 
/tmp/claude-0/-home-user-Rare-cancers/1af35c7f-7dc4-53ce-91d2-1631a2a10a85/scratchpad/smwork/cross/dock_8XTT-model2

>  <Rbt.Executable>  (40) 
rbdock - v25.07-alpha

>  <Rbt.Library>  (40) 
libRbt.so (25.07, Buildalpha)

>  <Rbt.Parameter_File>  (40) 
/tmp/claude-0/-home-user-Rare-cancers/1af35c7f-7dc4-53ce-91d2-1631a2a10a85/scratchpad/rdroot/share/rDock/data/scripts/dock.prm

>  <Rbt.Receptor>  (40) 
rec.prm

>  <SCORE>  (40) 
5.5345

>  <SCORE.INTER>  (40) 
6.68374

>  <SCORE.INTER.CONST>  (40) 
1

>  <SCORE.INTER.POLAR>  (40) 
-0.960319

>  <SCORE.INTER.REPUL>  (40) 
0

>  <SCORE.INTER.ROT>  (40) 
7

>  <SCORE.INTER.VDW>  (40) 
-2.45118

>  <SCORE.INTER.norm>  (40) 
0.303806

>  <SCORE.INTRA>  (40) 
5.66781

>  <SCORE.INTRA.DIHEDRAL>  (40) 
8.47214

>  <SCORE.INTRA.DIHEDRAL.0>  (40) 
3.78927

>  <SCORE.INTRA.POLAR>  (40) 
0

>  <SCORE.INTRA.POLAR.0>  (40) 
0

>  <SCORE.INTRA.REPUL>  (40) 
0

>  <SCORE.INTRA.REPUL.0>  (40) 
0

>  <SCORE.INTRA.VDW>  (40) 
1.43174

>  <SCORE.INTRA.VDW.0>  (40) 
1.02728

>  <SCORE.INTRA.norm>  (40) 
0.257628

>  <SCORE.RESTR>  (40) 
0

>  <SCORE.RESTR.CAVITY>  (40) 
0

>  <SCORE.RESTR.norm>  (40) 
0

>  <SCORE.SYSTEM>  (40) 
-6.81701

>  <SCORE.SYSTEM.CONST>  (40) 
0

>  <SCORE.SYSTEM.DIHEDRAL>  (40) 
8.15242

>  <SCORE.SYSTEM.POLAR>  (40) 
-3.11949

>  <SCORE.SYSTEM.REPUL>  (40) 
7.85486e-05

>  <SCORE.SYSTEM.VDW>  (40) 
-0.287352

>  <SCORE.SYSTEM.norm>  (40) 
-0.309864

>  <SCORE.heavy>  (40) 
22

>  <SCORE.norm>  (40) 
0.25157

$$$$
denovo_401
     RDKit          3D

 22 23  0  0  0  0  0  0  0  0999 V2000
  -17.6873   17.6775  -14.5390 C   0  0  0  0  0  0  0  0  0  0  0  0
  -16.9659   16.9096  -13.5849 O   0  0  0  0  0  0  0  0  0  0  0  0
  -15.5658   16.8905  -13.8723 C   0  0  0  0  0  0  0  0  0  0  0  0
  -15.0320   15.4419  -13.8341 C   0  0  2  0  0  0  0  0  0  0  0  0
  -15.1357   14.8986  -12.4131 C   0  0  0  0  0  0  0  0  0  0  0  0
  -15.7848   13.6763  -12.1818 C   0  0  0  0  0  0  0  0  0  0  0  0
  -15.8935   13.1617  -10.8887 C   0  0  0  0  0  0  0  0  0  0  0  0
  -15.3563   13.8618   -9.8110 C   0  0  0  0  0  0  0  0  0  0  0  0
  -14.7102   15.0771  -10.0250 C   0  0  0  0  0  0  0  0  0  0  0  0
  -14.6006   15.5939  -11.3173 C   0  0  0  0  0  0  0  0  0  0  0  0
  -13.5911   15.3183  -14.3919 C   0  0  2  0  0  0  0  0  0  0  0  0
  -13.4207   15.8012  -15.8360 C   0  0  0  0  0  0  0  0  0  0  0  0
  -12.2288   15.0271  -16.4076 C   0  0  0  0  0  0  0  0  0  0  0  0
  -11.8257   13.9975  -15.3486 C   0  0  2  0  0  0  0  0  0  0  0  0
  -11.3737   12.6237  -15.8733 C   0  0  0  0  0  0  0  0  0  0  0  0
  -10.0070   12.5301  -16.6345 C   0  0  0  0  0  0  0  0  0  0  0  0
   -9.8859   13.7023  -17.6295 C   0  0  0  0  0  0  0  0  0  0  0  0
   -8.9015   12.7049  -15.5622 C   0  0  0  0  0  0  0  0  0  0  0  0
   -9.8231   11.1672  -17.3737 C   0  0  1  0  0  0  0  0  0  0  0  0
   -8.5786   11.0646  -18.2561 C   0  0  0  0  0  0  0  0  0  0  0  0
   -9.7407   10.0869  -16.4424 O   0  0  0  0  0  0  0  0  0  0  0  0
  -13.0839   13.8750  -14.4790 C   0  0  0  0  0  0  0  0  0  0  0  0
  1  2  1  0
  2  3  1  0
  4  3  1  1
  4  5  1  0
  5  6  2  0
  6  7  1  0
  7  8  2  0
  8  9  1  0
  9 10  2  0
  4 11  1  0
 11 12  1  6
 12 13  1  0
 13 14  1  0
 14 15  1  6
 15 16  1  0
 16 17  1  0
 16 18  1  0
 16 19  1  0
 19 20  1  1
 19 21  1  0
 14 22  1  0
 10  5  1  0
 22 11  1  0
M  END
>  <CHROM.0>  (41) 
-154.33831777,-61.90724550,-63.01579200,62.90029730,-62.78122242,59.91789841
-65.83389670,69.78528025,-42.26295183,-162.84368920,63.07620647,176.91967939
-175.11481930,64.17598476

>  <CHROM.1>  (41) 
-130.91070840,-65.64255196,127.27700746,-58.14826655,69.51942450,-44.06025109
173.85268110,-64.24840825,-13.08906795,14.11986263,-14.48231361,2.92217936
-0.73217383,2.14547773

>  <Name>  (41) 
denovo_401

>  <RI>  (41) 
1.14584e+09

>  <Rbt.Current_Directory>  (41) 
/tmp/claude-0/-home-user-Rare-cancers/1af35c7f-7dc4-53ce-91d2-1631a2a10a85/scratchpad/smwork/cross/dock_8XTT-model2

>  <Rbt.Executable>  (41) 
rbdock - v25.07-alpha

>  <Rbt.Library>  (41) 
libRbt.so (25.07, Buildalpha)

>  <Rbt.Parameter_File>  (41) 
/tmp/claude-0/-home-user-Rare-cancers/1af35c7f-7dc4-53ce-91d2-1631a2a10a85/scratchpad/rdroot/share/rDock/data/scripts/dock.prm

>  <Rbt.Receptor>  (41) 
rec.prm

>  <SCORE>  (41) 
6.1272

>  <SCORE.INTER>  (41) 
2.14445

>  <SCORE.INTER.CONST>  (41) 
1

>  <SCORE.INTER.POLAR>  (41) 
0

>  <SCORE.INTER.REPUL>  (41) 
0.0371991

>  <SCORE.INTER.ROT>  (41) 
7

>  <SCORE.INTER.VDW>  (41) 
-10.4415

>  <SCORE.INTER.norm>  (41) 
0.0974752

>  <SCORE.INTRA>  (41) 
7.20374

>  <SCORE.INTRA.DIHEDRAL>  (41) 
5.50036

>  <SCORE.INTRA.DIHEDRAL.0>  (41) 
3.78927

>  <SCORE.INTRA.POLAR>  (41) 
0

>  <SCORE.INTRA.POLAR.0>  (41) 
0

>  <SCORE.INTRA.REPUL>  (41) 
0

>  <SCORE.INTRA.REPUL.0>  (41) 
0

>  <SCORE.INTRA.VDW>  (41) 
4.45356

>  <SCORE.INTRA.VDW.0>  (41) 
1.02728

>  <SCORE.INTRA.norm>  (41) 
0.327443

>  <SCORE.RESTR>  (41) 
0

>  <SCORE.RESTR.CAVITY>  (41) 
0

>  <SCORE.RESTR.norm>  (41) 
0

>  <SCORE.SYSTEM>  (41) 
-3.22099

>  <SCORE.SYSTEM.CONST>  (41) 
0

>  <SCORE.SYSTEM.DIHEDRAL>  (41) 
4.03858

>  <SCORE.SYSTEM.POLAR>  (41) 
-1.37498

>  <SCORE.SYSTEM.REPUL>  (41) 
0.391302

>  <SCORE.SYSTEM.VDW>  (41) 
-2.52188

>  <SCORE.SYSTEM.norm>  (41) 
-0.146409

>  <SCORE.heavy>  (41) 
22

>  <SCORE.norm>  (41) 
0.278509

$$$$
denovo_401
     RDKit          3D

 22 23  0  0  0  0  0  0  0  0999 V2000
  -18.0355   17.7100  -14.5101 C   0  0  0  0  0  0  0  0  0  0  0  0
  -17.2581   16.9166  -13.6232 O   0  0  0  0  0  0  0  0  0  0  0  0
  -15.8576   17.0816  -13.8570 C   0  0  0  0  0  0  0  0  0  0  0  0
  -15.1665   15.7042  -13.9568 C   0  0  2  0  0  0  0  0  0  0  0  0
  -15.1422   15.0461  -12.5815 C   0  0  0  0  0  0  0  0  0  0  0  0
  -14.5997   15.7391  -11.4887 C   0  0  0  0  0  0  0  0  0  0  0  0
  -14.5650   15.1545  -10.2215 C   0  0  0  0  0  0  0  0  0  0  0  0
  -15.0704   13.8708  -10.0304 C   0  0  0  0  0  0  0  0  0  0  0  0
  -15.6108   13.1700  -11.1061 C   0  0  0  0  0  0  0  0  0  0  0  0
  -15.6463   13.7524  -12.3744 C   0  0  0  0  0  0  0  0  0  0  0  0
  -13.7489   15.7877  -14.5781 C   0  0  2  0  0  0  0  0  0  0  0  0
  -13.6656   16.5996  -15.8748 C   0  0  0  0  0  0  0  0  0  0  0  0
  -12.4697   16.0414  -16.6524 C   0  0  0  0  0  0  0  0  0  0  0  0
  -11.9752   14.8170  -15.8775 C   0  0  2  0  0  0  0  0  0  0  0  0
  -11.4904   13.6271  -16.7236 C   0  0  0  0  0  0  0  0  0  0  0  0
  -10.4285   12.6558  -16.1032 C   0  0  0  0  0  0  0  0  0  0  0  0
   -9.3834   13.4672  -15.3107 C   0  0  0  0  0  0  0  0  0  0  0  0
  -11.1957   11.7624  -15.0955 C   0  0  0  0  0  0  0  0  0  0  0  0
   -9.7268   11.7670  -17.1781 C   0  0  1  0  0  0  0  0  0  0  0  0
   -8.6385   10.8339  -16.6461 C   0  0  0  0  0  0  0  0  0  0  0  0
  -10.6727   10.9329  -17.8494 O   0  0  0  0  0  0  0  0  0  0  0  0
  -13.1858   14.4318  -15.0171 C   0  0  0  0  0  0  0  0  0  0  0  0
  1  2  1  0
  2  3  1  0
  4  3  1  1
  4  5  1  0
  5  6  2  0
  6  7  1  0
  7  8  2  0
  8  9  1  0
  9 10  2  0
  4 11  1  0
 11 12  1  6
 12 13  1  0
 13 14  1  0
 14 15  1  6
 15 16  1  0
 16 17  1  0
 16 18  1  0
 16 19  1  0
 19 20  1  1
 19 21  1  0
 14 22  1  0
 10  5  1  0
 22 11  1  0
M  END
>  <CHROM.0>  (42) 
-138.19712941,54.43009644,-176.02999652,62.63805852,176.87617831,-66.67973012
-59.54258531,58.99040693,-40.81146296,-161.98055633,-54.64041423,-71.82069178
-65.89181323,178.03231900

>  <CHROM.1>  (42) 
-131.21714221,-70.36021613,-53.82989766,-48.48902849,153.25656018,-39.87769371
177.69200554,-64.08270802,-13.31007579,14.37758499,-14.47616866,2.96011090
-0.73126825,2.11018365

>  <Name>  (42) 
denovo_401

>  <RI>  (42) 
1.14584e+09

>  <Rbt.Current_Directory>  (42) 
/tmp/claude-0/-home-user-Rare-cancers/1af35c7f-7dc4-53ce-91d2-1631a2a10a85/scratchpad/smwork/cross/dock_8XTT-model2

>  <Rbt.Executable>  (42) 
rbdock - v25.07-alpha

>  <Rbt.Library>  (42) 
libRbt.so (25.07, Buildalpha)

>  <Rbt.Parameter_File>  (42) 
/tmp/claude-0/-home-user-Rare-cancers/1af35c7f-7dc4-53ce-91d2-1631a2a10a85/scratchpad/rdroot/share/rDock/data/scripts/dock.prm

>  <Rbt.Receptor>  (42) 
rec.prm

>  <SCORE>  (42) 
6.2408

>  <SCORE.INTER>  (42) 
6.57281

>  <SCORE.INTER.CONST>  (42) 
1

>  <SCORE.INTER.POLAR>  (42) 
-0.273865

>  <SCORE.INTER.REPUL>  (42) 
0

>  <SCORE.INTER.ROT>  (42) 
7

>  <SCORE.INTER.VDW>  (42) 
-4.89605

>  <SCORE.INTER.norm>  (42) 
0.298764

>  <SCORE.INTRA>  (42) 
7.31754

>  <SCORE.INTRA.DIHEDRAL>  (42) 
8.92131

>  <SCORE.INTRA.DIHEDRAL.0>  (42) 
3.78927

>  <SCORE.INTRA.POLAR>  (42) 
0

>  <SCORE.INTRA.POLAR.0>  (42) 
0

>  <SCORE.INTRA.REPUL>  (42) 
0

>  <SCORE.INTRA.REPUL.0>  (42) 
0

>  <SCORE.INTRA.VDW>  (42) 
2.85689

>  <SCORE.INTRA.VDW.0>  (42) 
1.02728

>  <SCORE.INTRA.norm>  (42) 
0.332616

>  <SCORE.RESTR>  (42) 
0

>  <SCORE.RESTR.CAVITY>  (42) 
0

>  <SCORE.RESTR.norm>  (42) 
0

>  <SCORE.SYSTEM>  (42) 
-7.64952

>  <SCORE.SYSTEM.CONST>  (42) 
0

>  <SCORE.SYSTEM.DIHEDRAL>  (42) 
5.91559

>  <SCORE.SYSTEM.POLAR>  (42) 
-2.94016

>  <SCORE.SYSTEM.VDW>  (42) 
-0.610783

>  <SCORE.SYSTEM.norm>  (42) 
-0.347705

>  <SCORE.heavy>  (42) 
22

>  <SCORE.norm>  (42) 
0.283674

$$$$
denovo_401
     RDKit          3D

 22 23  0  0  0  0  0  0  0  0999 V2000
  -17.5673   17.6340  -14.4823 C   0  0  0  0  0  0  0  0  0  0  0  0
  -16.7900   16.8975  -13.5475 O   0  0  0  0  0  0  0  0  0  0  0  0
  -15.4290   16.7803  -13.9686 C   0  0  0  0  0  0  0  0  0  0  0  0
  -14.9573   15.3146  -13.8500 C   0  0  2  0  0  0  0  0  0  0  0  0
  -15.1050   14.8476  -12.4060 C   0  0  0  0  0  0  0  0  0  0  0  0
  -15.8034   13.6632  -12.1263 C   0  0  0  0  0  0  0  0  0  0  0  0
  -15.9529   13.2187  -10.8115 C   0  0  0  0  0  0  0  0  0  0  0  0
  -15.4079   13.9518   -9.7601 C   0  0  0  0  0  0  0  0  0  0  0  0
  -14.7130   15.1303  -10.0222 C   0  0  0  0  0  0  0  0  0  0  0  0
  -14.5625   15.5770  -11.3362 C   0  0  0  0  0  0  0  0  0  0  0  0
  -13.5146   15.1040  -14.3764 C   0  0  2  0  0  0  0  0  0  0  0  0
  -13.2969   15.5279  -15.8326 C   0  0  0  0  0  0  0  0  0  0  0  0
  -12.1337   14.6792  -16.3553 C   0  0  0  0  0  0  0  0  0  0  0  0
  -11.7982   13.6691  -15.2547 C   0  0  2  0  0  0  0  0  0  0  0  0
  -11.4034   12.2582  -15.7241 C   0  0  0  0  0  0  0  0  0  0  0  0
  -10.0200   12.0701  -16.4361 C   0  0  0  0  0  0  0  0  0  0  0  0
   -9.7593   10.5689  -16.6751 C   0  0  0  0  0  0  0  0  0  0  0  0
  -10.1498   12.7532  -17.8214 C   0  0  0  0  0  0  0  0  0  0  0  0
   -8.8406   12.7068  -15.6352 C   0  0  1  0  0  0  0  0  0  0  0  0
   -8.9399   12.5815  -14.1146 C   0  0  0  0  0  0  0  0  0  0  0  0
   -7.5937   12.1142  -16.0027 O   0  0  0  0  0  0  0  0  0  0  0  0
  -13.0754   13.6362  -14.4051 C   0  0  0  0  0  0  0  0  0  0  0  0
  1  2  1  0
  2  3  1  0
  4  3  1  1
  4  5  1  0
  5  6  2  0
  6  7  1  0
  7  8  2  0
  8  9  1  0
  9 10  2  0
  4 11  1  0
 11 12  1  6
 12 13  1  0
 13 14  1  0
 14 15  1  6
 15 16  1  0
 16 17  1  0
 16 18  1  0
 16 19  1  0
 19 20  1  1
 19 21  1  0
 14 22  1  0
 10  5  1  0
 22 11  1  0
M  END
>  <CHROM.0>  (43) 
-117.35977383,-175.67384431,-60.11883213,-48.57534853,-178.93837414,-60.40081161
-56.05256258,73.45241250,-20.88645934,-170.82519985,71.16297219,-167.81594572
-171.65288536,-51.66055876

>  <CHROM.1>  (43) 
-131.83214813,-58.53485950,127.54761281,-57.20501405,70.46210184,173.61037591
37.27730102,57.76378922,-12.96772128,14.11565381,-14.21584370,2.86948905
-0.61764515,1.97506466

>  <Name>  (43) 
denovo_401

>  <RI>  (43) 
1.14584e+09

>  <Rbt.Current_Directory>  (43) 
/tmp/claude-0/-home-user-Rare-cancers/1af35c7f-7dc4-53ce-91d2-1631a2a10a85/scratchpad/smwork/cross/dock_8XTT-model2

>  <Rbt.Executable>  (43) 
rbdock - v25.07-alpha

>  <Rbt.Library>  (43) 
libRbt.so (25.07, Buildalpha)

>  <Rbt.Parameter_File>  (43) 
/tmp/claude-0/-home-user-Rare-cancers/1af35c7f-7dc4-53ce-91d2-1631a2a10a85/scratchpad/rdroot/share/rDock/data/scripts/dock.prm

>  <Rbt.Receptor>  (43) 
rec.prm

>  <SCORE>  (43) 
7.4711

>  <SCORE.INTER>  (43) 
4.33845

>  <SCORE.INTER.CONST>  (43) 
1

>  <SCORE.INTER.POLAR>  (43) 
0

>  <SCORE.INTER.REPUL>  (43) 
0

>  <SCORE.INTER.ROT>  (43) 
7

>  <SCORE.INTER.VDW>  (43) 
-8.06155

>  <SCORE.INTER.norm>  (43) 
0.197202

>  <SCORE.INTRA>  (43) 
4.609

>  <SCORE.INTRA.DIHEDRAL>  (43) 
6.79874

>  <SCORE.INTRA.DIHEDRAL.0>  (43) 
3.78927

>  <SCORE.INTRA.POLAR>  (43) 
0

>  <SCORE.INTRA.POLAR.0>  (43) 
0

>  <SCORE.INTRA.REPUL>  (43) 
0

>  <SCORE.INTRA.REPUL.0>  (43) 
0

>  <SCORE.INTRA.VDW>  (43) 
1.20963

>  <SCORE.INTRA.VDW.0>  (43) 
1.02728

>  <SCORE.INTRA.norm>  (43) 
0.2095

>  <SCORE.RESTR>  (43) 
0

>  <SCORE.RESTR.CAVITY>  (43) 
0

>  <SCORE.RESTR.norm>  (43) 
0

>  <SCORE.SYSTEM>  (43) 
-1.4763

>  <SCORE.SYSTEM.CONST>  (43) 
0

>  <SCORE.SYSTEM.DIHEDRAL>  (43) 
10.4093

>  <SCORE.SYSTEM.POLAR>  (43) 
-1.72519

>  <SCORE.SYSTEM.REPUL>  (43) 
0.186452

>  <SCORE.SYSTEM.VDW>  (43) 
-1.74754

>  <SCORE.SYSTEM.norm>  (43) 
-0.0671047

>  <SCORE.heavy>  (43) 
22

>  <SCORE.norm>  (43) 
0.339597

$$$$
denovo_401
     RDKit          3D

 22 23  0  0  0  0  0  0  0  0999 V2000
  -17.8267   17.6967  -14.5496 C   0  0  0  0  0  0  0  0  0  0  0  0
  -17.0471   16.9157  -13.6537 O   0  0  0  0  0  0  0  0  0  0  0  0
  -15.6515   17.0104  -13.9479 C   0  0  0  0  0  0  0  0  0  0  0  0
  -15.0201   15.6021  -14.0024 C   0  0  2  0  0  0  0  0  0  0  0  0
  -15.0478   14.9777  -12.6115 C   0  0  0  0  0  0  0  0  0  0  0  0
  -15.6470   13.7228  -12.4247 C   0  0  0  0  0  0  0  0  0  0  0  0
  -15.6858   13.1340  -11.1596 C   0  0  0  0  0  0  0  0  0  0  0  0
  -15.1279   13.7915  -10.0658 C   0  0  0  0  0  0  0  0  0  0  0  0
  -14.5308   15.0384  -10.2356 C   0  0  0  0  0  0  0  0  0  0  0  0
  -14.4910   15.6294  -11.4998 C   0  0  0  0  0  0  0  0  0  0  0  0
  -13.5899   15.6084  -14.6001 C   0  0  2  0  0  0  0  0  0  0  0  0
  -13.4738   16.2773  -15.9737 C   0  0  0  0  0  0  0  0  0  0  0  0
  -12.2685   15.6306  -16.6633 C   0  0  0  0  0  0  0  0  0  0  0  0
  -11.8009   14.4918  -15.7530 C   0  0  2  0  0  0  0  0  0  0  0  0
  -11.3113   13.2151  -16.4581 C   0  0  0  0  0  0  0  0  0  0  0  0
  -10.4646   12.1866  -15.6327 C   0  0  0  0  0  0  0  0  0  0  0  0
   -9.5769   12.9390  -14.6204 C   0  0  0  0  0  0  0  0  0  0  0  0
  -11.4806   11.3359  -14.8287 C   0  0  0  0  0  0  0  0  0  0  0  0
   -9.5926   11.2614  -16.5391 C   0  0  1  0  0  0  0  0  0  0  0  0
  -10.3717   10.3849  -17.5203 C   0  0  0  0  0  0  0  0  0  0  0  0
   -8.6819   12.0291  -17.3279 O   0  0  0  0  0  0  0  0  0  0  0  0
  -13.0316   14.2094  -14.8813 C   0  0  0  0  0  0  0  0  0  0  0  0
  1  2  1  0
  2  3  1  0
  4  3  1  1
  4  5  1  0
  5  6  2  0
  6  7  1  0
  7  8  2  0
  8  9  1  0
  9 10  2  0
  4 11  1  0
 11 12  1  6
 12 13  1  0
 13 14  1  0
 14 15  1  6
 15 16  1  0
 16 17  1  0
 16 18  1  0
 16 19  1  0
 19 20  1  6
 19 21  1  0
 14 22  1  0
 10  5  1  0
 22 11  1  0
M  END
>  <CHROM.0>  (44) 
-167.16892235,55.90869452,-175.67675064,-50.92073360,72.48356890,-65.58827214
-62.94204969,68.39740748,-37.31267551,-60.75549291,-61.10589669,-68.62151718
-60.54178003,60.28085040

>  <CHROM.1>  (44) 
-131.28559611,-66.81981426,125.10657178,-53.60813971,163.36946107,-34.56128078
-61.22580402,168.57618703,-13.21139479,14.21791974,-14.40066400,3.00141857
-0.73097362,2.14464566

>  <Name>  (44) 
denovo_401

>  <RI>  (44) 
1.14584e+09

>  <Rbt.Current_Directory>  (44) 
/tmp/claude-0/-home-user-Rare-cancers/1af35c7f-7dc4-53ce-91d2-1631a2a10a85/scratchpad/smwork/cross/dock_8XTT-model2

>  <Rbt.Executable>  (44) 
rbdock - v25.07-alpha

>  <Rbt.Library>  (44) 
libRbt.so (25.07, Buildalpha)

>  <Rbt.Parameter_File>  (44) 
/tmp/claude-0/-home-user-Rare-cancers/1af35c7f-7dc4-53ce-91d2-1631a2a10a85/scratchpad/rdroot/share/rDock/data/scripts/dock.prm

>  <Rbt.Receptor>  (44) 
rec.prm

>  <SCORE>  (44) 
7.5678

>  <SCORE.INTER>  (44) 
7.99018

>  <SCORE.INTER.CONST>  (44) 
1

>  <SCORE.INTER.POLAR>  (44) 
0

>  <SCORE.INTER.REPUL>  (44) 
0

>  <SCORE.INTER.ROT>  (44) 
7

>  <SCORE.INTER.VDW>  (44) 
-4.40982

>  <SCORE.INTER.norm>  (44) 
0.36319

>  <SCORE.INTRA>  (44) 
5.38023

>  <SCORE.INTRA.DIHEDRAL>  (44) 
8.12737

>  <SCORE.INTRA.DIHEDRAL.0>  (44) 
3.78927

>  <SCORE.INTRA.POLAR>  (44) 
0

>  <SCORE.INTRA.POLAR.0>  (44) 
0

>  <SCORE.INTRA.REPUL>  (44) 
0

>  <SCORE.INTRA.REPUL.0>  (44) 
0

>  <SCORE.INTRA.VDW>  (44) 
1.31655

>  <SCORE.INTRA.VDW.0>  (44) 
1.02728

>  <SCORE.INTRA.norm>  (44) 
0.244556

>  <SCORE.RESTR>  (44) 
0

>  <SCORE.RESTR.CAVITY>  (44) 
0

>  <SCORE.RESTR.norm>  (44) 
0

>  <SCORE.SYSTEM>  (44) 
-5.80264

>  <SCORE.SYSTEM.CONST>  (44) 
0

>  <SCORE.SYSTEM.DIHEDRAL>  (44) 
3.5426

>  <SCORE.SYSTEM.POLAR>  (44) 
-2.51652

>  <SCORE.SYSTEM.REPUL>  (44) 
0.0266065

>  <SCORE.SYSTEM.VDW>  (44) 
0.849179

>  <SCORE.SYSTEM.norm>  (44) 
-0.263756

>  <SCORE.heavy>  (44) 
22

>  <SCORE.norm>  (44) 
0.343989

$$$$
denovo_401
     RDKit          3D

 22 23  0  0  0  0  0  0  0  0999 V2000
  -17.7387   17.7502  -14.5763 C   0  0  0  0  0  0  0  0  0  0  0  0
  -16.4934   17.1043  -14.8051 O   0  0  0  0  0  0  0  0  0  0  0  0
  -15.8122   16.8220  -13.5805 C   0  0  0  0  0  0  0  0  0  0  0  0
  -15.1898   15.4094  -13.6286 C   0  0  2  0  0  0  0  0  0  0  0  0
  -15.2032   14.7994  -12.2312 C   0  0  0  0  0  0  0  0  0  0  0  0
  -15.9730   13.6534  -11.9802 C   0  0  0  0  0  0  0  0  0  0  0  0
  -16.0018   13.0801  -10.7077 C   0  0  0  0  0  0  0  0  0  0  0  0
  -15.2635   13.6447   -9.6704 C   0  0  0  0  0  0  0  0  0  0  0  0
  -14.4957   14.7831   -9.9041 C   0  0  0  0  0  0  0  0  0  0  0  0
  -14.4655   15.3585  -11.1758 C   0  0  0  0  0  0  0  0  0  0  0  0
  -13.7675   15.4010  -14.2447 C   0  0  2  0  0  0  0  0  0  0  0  0
  -13.6834   15.9634  -15.6675 C   0  0  0  0  0  0  0  0  0  0  0  0
  -12.4717   15.2919  -16.3214 C   0  0  0  0  0  0  0  0  0  0  0  0
  -11.9669   14.2382  -15.3320 C   0  0  2  0  0  0  0  0  0  0  0  0
  -11.4562   12.9217  -15.9426 C   0  0  0  0  0  0  0  0  0  0  0  0
   -9.9947   12.8801  -16.5070 C   0  0  0  0  0  0  0  0  0  0  0  0
   -9.7380   14.1288  -17.3752 C   0  0  0  0  0  0  0  0  0  0  0  0
   -9.0537   12.9582  -15.2778 C   0  0  0  0  0  0  0  0  0  0  0  0
   -9.7020   11.5808  -17.3218 C   0  0  1  0  0  0  0  0  0  0  0  0
  -10.0918   10.2738  -16.6307 C   0  0  0  0  0  0  0  0  0  0  0  0
  -10.3956   11.5929  -18.5707 O   0  0  0  0  0  0  0  0  0  0  0  0
  -13.1801   13.9971  -14.4241 C   0  0  0  0  0  0  0  0  0  0  0  0
  1  2  1  0
  2  3  1  0
  4  3  1  1
  4  5  1  0
  5  6  2  0
  6  7  1  0
  7  8  2  0
  8  9  1  0
  9 10  2  0
  4 11  1  0
 11 12  1  6
 12 13  1  0
 13 14  1  0
 14 15  1  6
 15 16  1  0
 16 17  1  0
 16 18  1  0
 16 19  1  0
 19 20  1  1
 19 21  1  0
 14 22  1  0
 10  5  1  0
 22 11  1  0
M  END
>  <CHROM.0>  (45) 
30.74299316,58.93972646,20.58031176,65.61727564,-64.69460057,-62.54323690
66.33334594,70.46729840,-141.94727226,66.89328037,-167.14276039,-68.90991186
172.55049983,67.58824828

>  <CHROM.1>  (45) 
137.80142929,-147.32322090,115.69337143,-57.81454260,81.47812002,-46.15423175
-49.44853466,175.64640000,-13.23403722,14.24881896,-14.47541746,2.82122922
-0.72246240,2.08952124

>  <Name>  (45) 
denovo_401

>  <RI>  (45) 
1.14584e+09

>  <Rbt.Current_Directory>  (45) 
/tmp/claude-0/-home-user-Rare-cancers/1af35c7f-7dc4-53ce-91d2-1631a2a10a85/scratchpad/smwork/cross/dock_8XTT-model2

>  <Rbt.Executable>  (45) 
rbdock - v25.07-alpha

>  <Rbt.Library>  (45) 
libRbt.so (25.07, Buildalpha)

>  <Rbt.Parameter_File>  (45) 
/tmp/claude-0/-home-user-Rare-cancers/1af35c7f-7dc4-53ce-91d2-1631a2a10a85/scratchpad/rdroot/share/rDock/data/scripts/dock.prm

>  <Rbt.Receptor>  (45) 
rec.prm

>  <SCORE>  (45) 
9.4814

>  <SCORE.INTER>  (45) 
0.852735

>  <SCORE.INTER.CONST>  (45) 
1

>  <SCORE.INTER.POLAR>  (45) 
-0.931394

>  <SCORE.INTER.REPUL>  (45) 
0

>  <SCORE.INTER.ROT>  (45) 
7

>  <SCORE.INTER.VDW>  (45) 
-8.38053

>  <SCORE.INTER.norm>  (45) 
0.0387607

>  <SCORE.INTRA>  (45) 
5.7593

>  <SCORE.INTRA.DIHEDRAL>  (45) 
8.77765

>  <SCORE.INTRA.DIHEDRAL.0>  (45) 
3.78927

>  <SCORE.INTRA.POLAR>  (45) 
0

>  <SCORE.INTRA.POLAR.0>  (45) 
0

>  <SCORE.INTRA.REPUL>  (45) 
0

>  <SCORE.INTRA.REPUL.0>  (45) 
0

>  <SCORE.INTRA.VDW>  (45) 
1.37047

>  <SCORE.INTRA.VDW.0>  (45) 
1.02728

>  <SCORE.INTRA.norm>  (45) 
0.261786

>  <SCORE.RESTR>  (45) 
0

>  <SCORE.RESTR.CAVITY>  (45) 
0

>  <SCORE.RESTR.norm>  (45) 
0

>  <SCORE.SYSTEM>  (45) 
2.8694

>  <SCORE.SYSTEM.CONST>  (45) 
0

>  <SCORE.SYSTEM.DIHEDRAL>  (45) 
12.0631

>  <SCORE.SYSTEM.POLAR>  (45) 
-2.58443

>  <SCORE.SYSTEM.REPUL>  (45) 
0.750978

>  <SCORE.SYSTEM.VDW>  (45) 
1.87005

>  <SCORE.SYSTEM.norm>  (45) 
0.130427

>  <SCORE.heavy>  (45) 
22

>  <SCORE.norm>  (45) 
0.430974

$$$$
denovo_401
     RDKit          3D

 22 23  0  0  0  0  0  0  0  0999 V2000
  -17.7864   17.6936  -14.5660 C   0  0  0  0  0  0  0  0  0  0  0  0
  -17.0247   16.9111  -13.6562 O   0  0  0  0  0  0  0  0  0  0  0  0
  -15.6244   16.9955  -13.9310 C   0  0  0  0  0  0  0  0  0  0  0  0
  -15.0043   15.5822  -13.9855 C   0  0  2  0  0  0  0  0  0  0  0  0
  -15.0360   14.9585  -12.5945 C   0  0  0  0  0  0  0  0  0  0  0  0
  -15.6376   13.7046  -12.4083 C   0  0  0  0  0  0  0  0  0  0  0  0
  -15.6801   13.1164  -11.1430 C   0  0  0  0  0  0  0  0  0  0  0  0
  -15.1234   13.7735  -10.0484 C   0  0  0  0  0  0  0  0  0  0  0  0
  -14.5239   15.0193  -10.2175 C   0  0  0  0  0  0  0  0  0  0  0  0
  -14.4804   15.6097  -11.4819 C   0  0  0  0  0  0  0  0  0  0  0  0
  -13.5746   15.5769  -14.5844 C   0  0  2  0  0  0  0  0  0  0  0  0
  -13.4559   16.2359  -15.9625 C   0  0  0  0  0  0  0  0  0  0  0  0
  -12.2546   15.5782  -16.6486 C   0  0  0  0  0  0  0  0  0  0  0  0
  -11.7924   14.4431  -15.7310 C   0  0  2  0  0  0  0  0  0  0  0  0
  -11.3101   13.1591  -16.4279 C   0  0  0  0  0  0  0  0  0  0  0  0
  -10.4778   12.1264  -15.5931 C   0  0  0  0  0  0  0  0  0  0  0  0
   -9.6134   12.8733  -14.5569 C   0  0  0  0  0  0  0  0  0  0  0  0
  -11.5078   11.2668  -14.8169 C   0  0  0  0  0  0  0  0  0  0  0  0
   -9.5847   11.2106  -16.4885 C   0  0  1  0  0  0  0  0  0  0  0  0
  -10.3292   10.4275  -17.5703 C   0  0  0  0  0  0  0  0  0  0  0  0
   -8.5861   11.9749  -17.1665 O   0  0  0  0  0  0  0  0  0  0  0  0
  -13.0239   14.1730  -14.8565 C   0  0  0  0  0  0  0  0  0  0  0  0
  1  2  1  0
  2  3  1  0
  4  3  1  1
  4  5  1  0
  5  6  2  0
  6  7  1  0
  7  8  2  0
  8  9  1  0
  9 10  2  0
  4 11  1  0
 11 12  1  6
 12 13  1  0
 13 14  1  0
 14 15  1  6
 15 16  1  0
 16 17  1  0
 16 18  1  0
 16 19  1  0
 19 20  1  6
 19 21  1  0
 14 22  1  0
 10  5  1  0
 22 11  1  0
M  END
>  <CHROM.0>  (46) 
61.04400014,54.19514566,-62.35500156,64.96833643,73.39593840,-63.79111983
-66.59706309,69.64668647,-47.03142185,-170.98499598,-174.66258743,57.38715738
70.70089777,-58.06372743

>  <CHROM.1>  (46) 
-130.70779099,-67.71188740,125.50397091,-54.00549254,163.83770093,-33.28855918
-56.33335084,-56.64724276,-13.20084233,14.19144101,-14.37676907,3.00308879
-0.73059696,2.14020518

>  <Name>  (46) 
denovo_401

>  <RI>  (46) 
1.14584e+09

>  <Rbt.Current_Directory>  (46) 
/tmp/claude-0/-home-user-Rare-cancers/1af35c7f-7dc4-53ce-91d2-1631a2a10a85/scratchpad/smwork/cross/dock_8XTT-model2

>  <Rbt.Executable>  (46) 
rbdock - v25.07-alpha

>  <Rbt.Library>  (46) 
libRbt.so (25.07, Buildalpha)

>  <Rbt.Parameter_File>  (46) 
/tmp/claude-0/-home-user-Rare-cancers/1af35c7f-7dc4-53ce-91d2-1631a2a10a85/scratchpad/rdroot/share/rDock/data/scripts/dock.prm

>  <Rbt.Receptor>  (46) 
rec.prm

>  <SCORE>  (46) 
10.7954

>  <SCORE.INTER>  (46) 
8.26977

>  <SCORE.INTER.CONST>  (46) 
1

>  <SCORE.INTER.POLAR>  (46) 
0

>  <SCORE.INTER.REPUL>  (46) 
0

>  <SCORE.INTER.ROT>  (46) 
7

>  <SCORE.INTER.VDW>  (46) 
-4.13023

>  <SCORE.INTER.norm>  (46) 
0.375899

>  <SCORE.INTRA>  (46) 
5.13063

>  <SCORE.INTRA.DIHEDRAL>  (46) 
7.79512

>  <SCORE.INTRA.DIHEDRAL.0>  (46) 
3.78927

>  <SCORE.INTRA.POLAR>  (46) 
0

>  <SCORE.INTRA.POLAR.0>  (46) 
0

>  <SCORE.INTRA.REPUL>  (46) 
0

>  <SCORE.INTRA.REPUL.0>  (46) 
0

>  <SCORE.INTRA.VDW>  (46) 
1.23307

>  <SCORE.INTRA.VDW.0>  (46) 
1.02728

>  <SCORE.INTRA.norm>  (46) 
0.233211

>  <SCORE.RESTR>  (46) 
0

>  <SCORE.RESTR.CAVITY>  (46) 
0

>  <SCORE.RESTR.norm>  (46) 
0

>  <SCORE.SYSTEM>  (46) 
-2.60499

>  <SCORE.SYSTEM.CONST>  (46) 
0

>  <SCORE.SYSTEM.DIHEDRAL>  (46) 
7.03017

>  <SCORE.SYSTEM.POLAR>  (46) 
-2.52634

>  <SCORE.SYSTEM.REPUL>  (46) 
0.447877

>  <SCORE.SYSTEM.VDW>  (46) 
0.230077

>  <SCORE.SYSTEM.norm>  (46) 
-0.118409

>  <SCORE.heavy>  (46) 
22

>  <SCORE.norm>  (46) 
0.490701

$$$$
denovo_401
     RDKit          3D

 22 23  0  0  0  0  0  0  0  0999 V2000
  -15.6486   18.2692  -14.8988 C   0  0  0  0  0  0  0  0  0  0  0  0
  -15.5317   16.8610  -14.7450 O   0  0  0  0  0  0  0  0  0  0  0  0
  -15.5408   16.4777  -13.3680 C   0  0  0  0  0  0  0  0  0  0  0  0
  -15.0840   15.0100  -13.2188 C   0  0  2  0  0  0  0  0  0  0  0  0
  -15.1087   14.6164  -11.7458 C   0  0  0  0  0  0  0  0  0  0  0  0
  -15.8534   13.4997  -11.3370 C   0  0  0  0  0  0  0  0  0  0  0  0
  -15.8921   13.1232   -9.9933 C   0  0  0  0  0  0  0  0  0  0  0  0
  -15.1886   13.8577   -9.0417 C   0  0  0  0  0  0  0  0  0  0  0  0
  -14.4460   14.9695   -9.4324 C   0  0  0  0  0  0  0  0  0  0  0  0
  -14.4061   15.3482  -10.7755 C   0  0  0  0  0  0  0  0  0  0  0  0
  -13.6982   14.7446  -13.8605 C   0  0  2  0  0  0  0  0  0  0  0  0
  -13.5683   15.2060  -15.3158 C   0  0  0  0  0  0  0  0  0  0  0  0
  -12.4943   14.3176  -15.9514 C   0  0  0  0  0  0  0  0  0  0  0  0
  -12.1311   13.2552  -14.9105 C   0  0  2  0  0  0  0  0  0  0  0  0
  -11.8481   11.8428  -15.4508 C   0  0  0  0  0  0  0  0  0  0  0  0
  -10.3561   11.3849  -15.5927 C   0  0  0  0  0  0  0  0  0  0  0  0
   -9.9906   10.4394  -14.4303 C   0  0  0  0  0  0  0  0  0  0  0  0
  -10.2771   10.5685  -16.9079 C   0  0  0  0  0  0  0  0  0  0  0  0
   -9.3615   12.5871  -15.6500 C   0  0  1  0  0  0  0  0  0  0  0  0
   -7.9102   12.2208  -15.9623 C   0  0  0  0  0  0  0  0  0  0  0  0
   -9.7568   13.5312  -16.6467 O   0  0  0  0  0  0  0  0  0  0  0  0
  -13.3409   13.2583  -13.9667 C   0  0  0  0  0  0  0  0  0  0  0  0
  1  2  1  0
  2  3  1  0
  4  3  1  1
  4  5  1  0
  5  6  2  0
  6  7  1  0
  7  8  2  0
  8  9  1  0
  9 10  2  0
  4 11  1  0
 11 12  1  6
 12 13  1  0
 13 14  1  0
 14 15  1  6
 15 16  1  0
 16 17  1  0
 16 18  1  0
 16 19  1  0
 19 20  1  6
 19 21  1  0
 14 22  1  0
 10  5  1  0
 22 11  1  0
M  END
>  <CHROM.0>  (47) 
-158.53075216,54.99272692,-63.35847153,67.45349625,69.63407067,-65.95835389
-65.74890221,66.85205222,-36.35229506,-166.70522548,-63.03206930,-69.70613416
-179.78489303,69.49711075

>  <CHROM.1>  (47) 
-166.70659043,-179.63496093,124.36212999,-52.11836638,101.47474594,102.67493385
-172.71060360,144.78273354,-12.99644244,13.89363060,-13.89238142,2.94418736
-0.75445245,2.19233876

>  <Name>  (47) 
denovo_401

>  <RI>  (47) 
1.14584e+09

>  <Rbt.Current_Directory>  (47) 
/tmp/claude-0/-home-user-Rare-cancers/1af35c7f-7dc4-53ce-91d2-1631a2a10a85/scratchpad/smwork/cross/dock_8XTT-model2

>  <Rbt.Executable>  (47) 
rbdock - v25.07-alpha

>  <Rbt.Library>  (47) 
libRbt.so (25.07, Buildalpha)

>  <Rbt.Parameter_File>  (47) 
/tmp/claude-0/-home-user-Rare-cancers/1af35c7f-7dc4-53ce-91d2-1631a2a10a85/scratchpad/rdroot/share/rDock/data/scripts/dock.prm

>  <Rbt.Receptor>  (47) 
rec.prm

>  <SCORE>  (47) 
16.6346

>  <SCORE.INTER>  (47) 
18.9796

>  <SCORE.INTER.CONST>  (47) 
1

>  <SCORE.INTER.POLAR>  (47) 
-1.90142

>  <SCORE.INTER.REPUL>  (47) 
0

>  <SCORE.INTER.ROT>  (47) 
7

>  <SCORE.INTER.VDW>  (47) 
13.0444

>  <SCORE.INTER.norm>  (47) 
0.862709

>  <SCORE.INTRA>  (47) 
8.47347

>  <SCORE.INTRA.DIHEDRAL>  (47) 
13.056

>  <SCORE.INTRA.DIHEDRAL.0>  (47) 
3.78927

>  <SCORE.INTRA.POLAR>  (47) 
0

>  <SCORE.INTRA.POLAR.0>  (47) 
0

>  <SCORE.INTRA.REPUL>  (47) 
0

>  <SCORE.INTRA.REPUL.0>  (47) 
0

>  <SCORE.INTRA.VDW>  (47) 
1.94547

>  <SCORE.INTRA.VDW.0>  (47) 
1.02728

>  <SCORE.INTRA.norm>  (47) 
0.385158

>  <SCORE.RESTR>  (47) 
0.0329757

>  <SCORE.RESTR.CAVITY>  (47) 
0.0329757

>  <SCORE.RESTR.norm>  (47) 
0.00149889

>  <SCORE.SYSTEM>  (47) 
-10.8514

>  <SCORE.SYSTEM.CONST>  (47) 
0

>  <SCORE.SYSTEM.DIHEDRAL>  (47) 
5.02821

>  <SCORE.SYSTEM.POLAR>  (47) 
-3.27401

>  <SCORE.SYSTEM.REPUL>  (47) 
0.0331485

>  <SCORE.SYSTEM.VDW>  (47) 
-2.39961

>  <SCORE.SYSTEM.norm>  (47) 
-0.493245

>  <SCORE.heavy>  (47) 
22

>  <SCORE.norm>  (47) 
0.75612

$$$$
denovo_401
     RDKit          3D

 22 23  0  0  0  0  0  0  0  0999 V2000
  -17.7274   17.6909  -14.5373 C   0  0  0  0  0  0  0  0  0  0  0  0
  -16.4111   17.2316  -14.8147 O   0  0  0  0  0  0  0  0  0  0  0  0
  -15.6882   16.9454  -13.6152 C   0  0  0  0  0  0  0  0  0  0  0  0
  -15.1760   15.4885  -13.6347 C   0  0  2  0  0  0  0  0  0  0  0  0
  -15.2445   14.9060  -12.2272 C   0  0  0  0  0  0  0  0  0  0  0  0
  -15.9689   13.7265  -11.9974 C   0  0  0  0  0  0  0  0  0  0  0  0
  -16.0469   13.1773  -10.7164 C   0  0  0  0  0  0  0  0  0  0  0  0
  -15.4037   13.7998   -9.6493 C   0  0  0  0  0  0  0  0  0  0  0  0
  -14.6820   14.9721   -9.8618 C   0  0  0  0  0  0  0  0  0  0  0  0
  -14.6027   15.5233  -11.1420 C   0  0  0  0  0  0  0  0  0  0  0  0
  -13.7550   15.3601  -14.2403 C   0  0  2  0  0  0  0  0  0  0  0  0
  -13.5669   16.0680  -15.5861 C   0  0  0  0  0  0  0  0  0  0  0  0
  -12.4423   15.3200  -16.3088 C   0  0  0  0  0  0  0  0  0  0  0  0
  -12.1035   14.0996  -15.4487 C   0  0  2  0  0  0  0  0  0  0  0  0
  -11.7605   12.8065  -16.2084 C   0  0  0  0  0  0  0  0  0  0  0  0
  -10.2507   12.4645  -16.4528 C   0  0  0  0  0  0  0  0  0  0  0  0
  -10.1316   11.4165  -17.5781 C   0  0  0  0  0  0  0  0  0  0  0  0
   -9.5862   13.7723  -16.9534 C   0  0  0  0  0  0  0  0  0  0  0  0
   -9.5320   11.9608  -15.1614 C   0  0  1  0  0  0  0  0  0  0  0  0
   -9.0307   13.0580  -14.2218 C   0  0  0  0  0  0  0  0  0  0  0  0
  -10.3993   11.1352  -14.3821 O   0  0  0  0  0  0  0  0  0  0  0  0
  -13.3567   13.9203  -14.5819 C   0  0  0  0  0  0  0  0  0  0  0  0
  1  2  1  0
  2  3  1  0
  4  3  1  1
  4  5  1  0
  5  6  2  0
  6  7  1  0
  7  8  2  0
  8  9  1  0
  9 10  2  0
  4 11  1  0
 11 12  1  6
 12 13  1  0
 13 14  1  0
 14 15  1  6
 15 16  1  0
 16 17  1  0
 16 18  1  0
 16 19  1  0
 19 20  1  1
 19 21  1  0
 14 22  1  0
 10  5  1  0
 22 11  1  0
M  END
>  <CHROM.0>  (48) 
-169.13582082,-62.03141205,-176.72464274,63.91379556,80.52325859,-64.35736996
-66.24968474,64.09619700,-37.25904091,-169.15731855,-58.56879889,-69.77666913
69.36566647,178.25414724

>  <CHROM.1>  (48) 
123.91694859,-143.70568233,123.70475762,-49.36083984,96.51103299,-162.15705359
-83.03817685,-47.70104871,-13.26687162,14.30663551,-14.13602596,2.90939585
-0.65764984,2.05875024

>  <Name>  (48) 
denovo_401

>  <RI>  (48) 
1.14584e+09

>  <Rbt.Current_Directory>  (48) 
/tmp/claude-0/-home-user-Rare-cancers/1af35c7f-7dc4-53ce-91d2-1631a2a10a85/scratchpad/smwork/cross/dock_8XTT-model2

>  <Rbt.Executable>  (48) 
rbdock - v25.07-alpha

>  <Rbt.Library>  (48) 
libRbt.so (25.07, Buildalpha)

>  <Rbt.Parameter_File>  (48) 
/tmp/claude-0/-home-user-Rare-cancers/1af35c7f-7dc4-53ce-91d2-1631a2a10a85/scratchpad/rdroot/share/rDock/data/scripts/dock.prm

>  <Rbt.Receptor>  (48) 
rec.prm

>  <SCORE>  (48) 
18.7998

>  <SCORE.INTER>  (48) 
15.9102

>  <SCORE.INTER.CONST>  (48) 
1

>  <SCORE.INTER.POLAR>  (48) 
-1.23142

>  <SCORE.INTER.REPUL>  (48) 
0.0594256

>  <SCORE.INTER.ROT>  (48) 
7

>  <SCORE.INTER.VDW>  (48) 
7.39993

>  <SCORE.INTER.norm>  (48) 
0.723193

>  <SCORE.INTRA>  (48) 
12.3448

>  <SCORE.INTRA.DIHEDRAL>  (48) 
16.5022

>  <SCORE.INTRA.DIHEDRAL.0>  (48) 
3.78927

>  <SCORE.INTRA.POLAR>  (48) 
0

>  <SCORE.INTRA.POLAR.0>  (48) 
0

>  <SCORE.INTRA.REPUL>  (48) 
0

>  <SCORE.INTRA.REPUL.0>  (48) 
0

>  <SCORE.INTRA.VDW>  (48) 
4.09372

>  <SCORE.INTRA.VDW.0>  (48) 
1.02728

>  <SCORE.INTRA.norm>  (48) 
0.561129

>  <SCORE.RESTR>  (48) 
0

>  <SCORE.RESTR.CAVITY>  (48) 
0

>  <SCORE.RESTR.norm>  (48) 
0

>  <SCORE.SYSTEM>  (48) 
-9.45531

>  <SCORE.SYSTEM.CONST>  (48) 
0

>  <SCORE.SYSTEM.DIHEDRAL>  (48) 
5.16263

>  <SCORE.SYSTEM.POLAR>  (48) 
-3.11923

>  <SCORE.SYSTEM.REPUL>  (48) 
0.00871595

>  <SCORE.SYSTEM.VDW>  (48) 
-1.47483

>  <SCORE.SYSTEM.norm>  (48) 
-0.429787

>  <SCORE.heavy>  (48) 
22

>  <SCORE.norm>  (48) 
0.854536

$$$$
denovo_401
     RDKit          3D

 22 23  0  0  0  0  0  0  0  0999 V2000
  -15.5444   18.3386  -14.9169 C   0  0  0  0  0  0  0  0  0  0  0  0
  -16.2797   17.2475  -14.3790 O   0  0  0  0  0  0  0  0  0  0  0  0
  -15.5348   16.5520  -13.3766 C   0  0  0  0  0  0  0  0  0  0  0  0
  -15.0672   15.1814  -13.9130 C   0  0  2  0  0  0  0  0  0  0  0  0
  -15.2610   14.1200  -12.8355 C   0  0  0  0  0  0  0  0  0  0  0  0
  -15.0038   12.7729  -13.1323 C   0  0  0  0  0  0  0  0  0  0  0  0
  -15.1772   11.7847  -12.1618 C   0  0  0  0  0  0  0  0  0  0  0  0
  -15.6106   12.1293  -10.8837 C   0  0  0  0  0  0  0  0  0  0  0  0
  -15.8712   13.4623  -10.5747 C   0  0  0  0  0  0  0  0  0  0  0  0
  -15.6988   14.4523  -11.5437 C   0  0  0  0  0  0  0  0  0  0  0  0
  -13.6084   15.2078  -14.4364 C   0  0  2  0  0  0  0  0  0  0  0  0
  -13.4184   15.9501  -15.7633 C   0  0  0  0  0  0  0  0  0  0  0  0
  -12.1834   15.3316  -16.4258 C   0  0  0  0  0  0  0  0  0  0  0  0
  -11.7698   14.1404  -15.5574 C   0  0  2  0  0  0  0  0  0  0  0  0
  -11.2526   12.9001  -16.3064 C   0  0  0  0  0  0  0  0  0  0  0  0
  -10.3901   11.8581  -15.5149 C   0  0  0  0  0  0  0  0  0  0  0  0
   -9.5267   12.5888  -14.4664 C   0  0  0  0  0  0  0  0  0  0  0  0
  -11.3935   10.9548  -14.7535 C   0  0  0  0  0  0  0  0  0  0  0  0
   -9.4915   10.9882  -16.4496 C   0  0  1  0  0  0  0  0  0  0  0  0
  -10.2286   10.2642  -17.5767 C   0  0  0  0  0  0  0  0  0  0  0  0
   -8.4860   11.7846  -17.0788 O   0  0  0  0  0  0  0  0  0  0  0  0
  -13.0449   13.8215  -14.7659 C   0  0  0  0  0  0  0  0  0  0  0  0
  1  2  1  0
  2  3  1  0
  4  3  1  1
  4  5  1  0
  5  6  2  0
  6  7  1  0
  7  8  2  0
  8  9  1  0
  9 10  2  0
  4 11  1  0
 11 12  1  6
 12 13  1  0
 13 14  1  0
 14 15  1  6
 15 16  1  0
 16 17  1  0
 16 18  1  0
 16 19  1  0
 19 20  1  6
 19 21  1  0
 14 22  1  0
 10  5  1  0
 22 11  1  0
M  END
>  <CHROM.0>  (49) 
28.99968667,53.62464071,-59.39460905,64.29716760,69.18449277,57.09720924
-66.04949148,74.02580703,-162.13757213,-166.40530253,66.56083468,57.42622468
61.51994676,65.66702540

>  <CHROM.1>  (49) 
-107.71835083,-137.53646758,174.94120845,-72.40942628,160.15488381,-34.28996192
-54.26056068,66.16479552,-13.10272133,13.73631143,-14.47722380,-2.96416566
-0.69473914,2.57900583

>  <Name>  (49) 
denovo_401

>  <RI>  (49) 
1.14584e+09

>  <Rbt.Current_Directory>  (49) 
/tmp/claude-0/-home-user-Rare-cancers/1af35c7f-7dc4-53ce-91d2-1631a2a10a85/scratchpad/smwork/cross/dock_8XTT-model2

>  <Rbt.Executable>  (49) 
rbdock - v25.07-alpha

>  <Rbt.Library>  (49) 
libRbt.so (25.07, Buildalpha)

>  <Rbt.Parameter_File>  (49) 
/tmp/claude-0/-home-user-Rare-cancers/1af35c7f-7dc4-53ce-91d2-1631a2a10a85/scratchpad/rdroot/share/rDock/data/scripts/dock.prm

>  <Rbt.Receptor>  (49) 
rec.prm

>  <SCORE>  (49) 
26.3460

>  <SCORE.INTER>  (49) 
17.2743

>  <SCORE.INTER.CONST>  (49) 
1

>  <SCORE.INTER.POLAR>  (49) 
-0.865333

>  <SCORE.INTER.REPUL>  (49) 
0

>  <SCORE.INTER.ROT>  (49) 
7

>  <SCORE.INTER.VDW>  (49) 
7.81645

>  <SCORE.INTER.norm>  (49) 
0.785197

>  <SCORE.INTRA>  (49) 
11.3047

>  <SCORE.INTRA.DIHEDRAL>  (49) 
12.5153

>  <SCORE.INTRA.DIHEDRAL.0>  (49) 
3.78927

>  <SCORE.INTRA.POLAR>  (49) 
0

>  <SCORE.INTRA.POLAR.0>  (49) 
0

>  <SCORE.INTRA.REPUL>  (49) 
0

>  <SCORE.INTRA.REPUL.0>  (49) 
0

>  <SCORE.INTRA.VDW>  (49) 
5.04709

>  <SCORE.INTRA.VDW.0>  (49) 
1.02728

>  <SCORE.INTRA.norm>  (49) 
0.513851

>  <SCORE.RESTR>  (49) 
0

>  <SCORE.RESTR.CAVITY>  (49) 
0

>  <SCORE.RESTR.norm>  (49) 
0

>  <SCORE.SYSTEM>  (49) 
-2.23306

>  <SCORE.SYSTEM.CONST>  (49) 
0

>  <SCORE.SYSTEM.DIHEDRAL>  (49) 
4.89766

>  <SCORE.SYSTEM.POLAR>  (49) 
-1.49368

>  <SCORE.SYSTEM.REPUL>  (49) 
0.178866

>  <SCORE.SYSTEM.VDW>  (49) 
-0.497698

>  <SCORE.SYSTEM.norm>  (49) 
-0.101503

>  <SCORE.heavy>  (49) 
22

>  <SCORE.norm>  (49) 
1.19755

$$$$
denovo_401
     RDKit          3D

 22 23  0  0  0  0  0  0  0  0999 V2000
   -9.1563   13.3857  -20.5347 C   0  0  0  0  0  0  0  0  0  0  0  0
   -9.1849   13.7877  -19.1716 O   0  0  0  0  0  0  0  0  0  0  0  0
  -10.4260   13.4506  -18.5477 C   0  0  0  0  0  0  0  0  0  0  0  0
  -10.4832   14.0372  -17.1202 C   0  0  2  0  0  0  0  0  0  0  0  0
   -9.4778   13.3128  -16.2317 C   0  0  0  0  0  0  0  0  0  0  0  0
   -8.5943   12.3813  -16.7977 C   0  0  0  0  0  0  0  0  0  0  0  0
   -7.6676   11.7049  -16.0024 C   0  0  0  0  0  0  0  0  0  0  0  0
   -7.6129   11.9496  -14.6323 C   0  0  0  0  0  0  0  0  0  0  0  0
   -8.4846   12.8705  -14.0559 C   0  0  0  0  0  0  0  0  0  0  0  0
   -9.4123   13.5480  -14.8492 C   0  0  0  0  0  0  0  0  0  0  0  0
  -11.9101   14.0064  -16.5156 C   0  0  2  0  0  0  0  0  0  0  0  0
  -12.5147   15.3854  -16.2323 C   0  0  0  0  0  0  0  0  0  0  0  0
  -13.5233   15.1848  -15.0970 C   0  0  0  0  0  0  0  0  0  0  0  0
  -13.3768   13.7338  -14.6311 C   0  0  2  0  0  0  0  0  0  0  0  0
  -13.5108   13.4886  -13.1182 C   0  0  0  0  0  0  0  0  0  0  0  0
  -14.8702   13.8435  -12.4238 C   0  0  0  0  0  0  0  0  0  0  0  0
  -15.3155   15.2581  -12.8474 C   0  0  0  0  0  0  0  0  0  0  0  0
  -15.9126   12.8363  -12.9728 C   0  0  0  0  0  0  0  0  0  0  0  0
  -14.7952   13.7394  -10.8678 C   0  0  1  0  0  0  0  0  0  0  0  0
  -13.9956   14.8441  -10.1763 C   0  0  0  0  0  0  0  0  0  0  0  0
  -16.1011   13.7716  -10.2892 O   0  0  0  0  0  0  0  0  0  0  0  0
  -11.9830   13.3399  -15.1376 C   0  0  0  0  0  0  0  0  0  0  0  0
  1  2  1  0
  2  3  1  0
  4  3  1  6
  4  5  1  0
  5  6  2  0
  6  7  1  0
  7  8  2  0
  8  9  1  0
  9 10  2  0
  4 11  1  0
 11 12  1  1
 12 13  1  0
 13 14  1  0
 14 15  1  1
 15 16  1  0
 16 17  1  0
 16 18  1  0
 16 19  1  0
 19 20  1  1
 19 21  1  0
 14 22  1  0
 10  5  1  0
 22 11  1  0
M  END
>  <CHROM.0>  (50) 
-151.05016069,161.78317294,-63.24892816,66.95212146,76.19898173,60.83206890
-68.17136664,68.10888864,-164.65637053,-60.61019678,-61.85837137,-76.06066285
71.68883242,178.39592409

>  <CHROM.1>  (50) 
-173.78039085,-68.67358504,6.37400952,-115.87945943,61.81141339,-48.32192315
72.26275817,177.23275711,-11.83009943,13.65426580,-14.89309200,0.72775238
0.33428033,-1.37544301

>  <Name>  (50) 
denovo_401

>  <RI>  (50) 
1.14584e+09

>  <Rbt.Current_Directory>  (50) 
/tmp/claude-0/-home-user-Rare-cancers/1af35c7f-7dc4-53ce-91d2-1631a2a10a85/scratchpad/smwork/cross/dock_8XTT-model2

>  <Rbt.Executable>  (50) 
rbdock - v25.07-alpha

>  <Rbt.Library>  (50) 
libRbt.so (25.07, Buildalpha)

>  <Rbt.Parameter_File>  (50) 
/tmp/claude-0/-home-user-Rare-cancers/1af35c7f-7dc4-53ce-91d2-1631a2a10a85/scratchpad/rdroot/share/rDock/data/scripts/dock.prm

>  <Rbt.Receptor>  (50) 
rec.prm

>  <SCORE>  (50) 
33.8812

>  <SCORE.INTER>  (50) 
24.7907

>  <SCORE.INTER.CONST>  (50) 
1

>  <SCORE.INTER.POLAR>  (50) 
0

>  <SCORE.INTER.REPUL>  (50) 
0.0640552

>  <SCORE.INTER.ROT>  (50) 
7

>  <SCORE.INTER.VDW>  (50) 
12.0704

>  <SCORE.INTER.norm>  (50) 
1.12685

>  <SCORE.INTRA>  (50) 
15.6795

>  <SCORE.INTRA.DIHEDRAL>  (50) 
4.33747

>  <SCORE.INTRA.DIHEDRAL.0>  (50) 
3.78927

>  <SCORE.INTRA.POLAR>  (50) 
0

>  <SCORE.INTRA.POLAR.0>  (50) 
0

>  <SCORE.INTRA.REPUL>  (50) 
0

>  <SCORE.INTRA.REPUL.0>  (50) 
0

>  <SCORE.INTRA.VDW>  (50) 
13.5107

>  <SCORE.INTRA.VDW.0>  (50) 
1.02728

>  <SCORE.INTRA.norm>  (50) 
0.712703

>  <SCORE.RESTR>  (50) 
0.0101151

>  <SCORE.RESTR.CAVITY>  (50) 
0.0101151

>  <SCORE.RESTR.norm>  (50) 
0.000459778

>  <SCORE.SYSTEM>  (50) 
-6.5991

>  <SCORE.SYSTEM.CONST>  (50) 
0

>  <SCORE.SYSTEM.DIHEDRAL>  (50) 
6.48207

>  <SCORE.SYSTEM.POLAR>  (50) 
-2.14654

>  <SCORE.SYSTEM.REPUL>  (50) 
0.0543533

>  <SCORE.SYSTEM.VDW>  (50) 
-2.81367

>  <SCORE.SYSTEM.norm>  (50) 
-0.299959

>  <SCORE.heavy>  (50) 
22

>  <SCORE.norm>  (50) 
1.54005

$$$$
