denovo_401
     RDKit          3D

 22 23  0  0  0  0  0  0  0  0999 V2000
    0.5818   14.9058  -14.1022 C   0  0  0  0  0  0  0  0  0  0  0  0
    0.7731   14.3804  -15.4091 O   0  0  0  0  0  0  0  0  0  0  0  0
    0.0568   13.1577  -15.5966 C   0  0  0  0  0  0  0  0  0  0  0  0
   -0.1591   12.8904  -17.1023 C   0  0  2  0  0  0  0  0  0  0  0  0
   -0.6864   14.1540  -17.7732 C   0  0  0  0  0  0  0  0  0  0  0  0
   -0.3497   14.4247  -19.1081 C   0  0  0  0  0  0  0  0  0  0  0  0
   -0.8193   15.5769  -19.7410 C   0  0  0  0  0  0  0  0  0  0  0  0
   -1.6297   16.4732  -19.0483 C   0  0  0  0  0  0  0  0  0  0  0  0
   -1.9712   16.2187  -17.7222 C   0  0  0  0  0  0  0  0  0  0  0  0
   -1.5026   15.0672  -17.0870 C   0  0  0  0  0  0  0  0  0  0  0  0
   -1.0794   11.6721  -17.3695 C   0  0  2  0  0  0  0  0  0  0  0  0
   -1.1583   11.2398  -18.8373 C   0  0  0  0  0  0  0  0  0  0  0  0
   -2.5174   10.5541  -19.0084 C   0  0  0  0  0  0  0  0  0  0  0  0
   -3.2706   10.7372  -17.6880 C   0  0  2  0  0  0  0  0  0  0  0  0
   -4.7840   10.9905  -17.7981 C   0  0  0  0  0  0  0  0  0  0  0  0
   -5.6862    9.8608  -18.4030 C   0  0  0  0  0  0  0  0  0  0  0  0
   -5.2533    9.5727  -19.8550 C   0  0  0  0  0  0  0  0  0  0  0  0
   -5.4052    8.5874  -17.5652 C   0  0  0  0  0  0  0  0  0  0  0  0
   -7.2066   10.2117  -18.3475 C   0  0  1  0  0  0  0  0  0  0  0  0
   -7.7884   10.3785  -16.9434 C   0  0  0  0  0  0  0  0  0  0  0  0
   -7.4752   11.4336  -19.0374 O   0  0  0  0  0  0  0  0  0  0  0  0
   -2.5531   11.9258  -17.0348 C   0  0  0  0  0  0  0  0  0  0  0  0
  1  2  1  0
  2  3  1  0
  4  3  1  1
  4  5  1  0
  5  6  2  0
  6  7  1  0
  7  8  2  0
  8  9  1  0
  9 10  2  0
  4 11  1  0
 11 12  1  6
 12 13  1  0
 13 14  1  0
 14 15  1  6
 15 16  1  0
 16 17  1  0
 16 18  1  0
 16 19  1  0
 19 20  1  1
 19 21  1  0
 14 22  1  0
 10  5  1  0
 22 11  1  0
M  END
>  <CHROM.0>  (1) 
-163.08549379,65.08939084,175.57859488,113.68059231,-73.84013647,-77.21134130
59.30073197,178.06685010,-70.53755861,-61.39539728,63.79492683

>  <CHROM.1>  (1) 
158.95216388,-47.86234536,148.11589359,-171.39180453,64.01123782,-61.18474270
-63.01089377,63.73475991,-2.78367032,12.42343458,-17.72977349,-0.42684693
0.54522654,2.59211717

>  <Name>  (1) 
denovo_401

>  <RI>  (1) 
-5.35378e+08

>  <Rbt.Current_Directory>  (1) 
/tmp/claude-0/-home-user-Rare-cancers/1af35c7f-7dc4-53ce-91d2-1631a2a10a85/scratchpad/smwork/cross/dock_8XTT-model20

>  <Rbt.Executable>  (1) 
rbdock - v25.07-alpha

>  <Rbt.Library>  (1) 
libRbt.so (25.07, Buildalpha)

>  <Rbt.Parameter_File>  (1) 
/tmp/claude-0/-home-user-Rare-cancers/1af35c7f-7dc4-53ce-91d2-1631a2a10a85/scratchpad/rdroot/share/rDock/data/scripts/dock.prm

>  <Rbt.Receptor>  (1) 
rec.prm

>  <SCORE>  (1) 
-15.0790

>  <SCORE.INTER>  (1) 
-9.14496

>  <SCORE.INTER.CONST>  (1) 
1

>  <SCORE.INTER.POLAR>  (1) 
-0.55834

>  <SCORE.INTER.REPUL>  (1) 
0

>  <SCORE.INTER.ROT>  (1) 
7

>  <SCORE.INTER.VDW>  (1) 
-19.6466

>  <SCORE.INTER.norm>  (1) 
-0.41568

>  <SCORE.INTRA>  (1) 
2.48441

>  <SCORE.INTRA.DIHEDRAL>  (1) 
0.305648

>  <SCORE.INTRA.DIHEDRAL.0>  (1) 
3.78927

>  <SCORE.INTRA.POLAR>  (1) 
0

>  <SCORE.INTRA.POLAR.0>  (1) 
0

>  <SCORE.INTRA.REPUL>  (1) 
0

>  <SCORE.INTRA.REPUL.0>  (1) 
0

>  <SCORE.INTRA.VDW>  (1) 
2.33158

>  <SCORE.INTRA.VDW.0>  (1) 
1.02728

>  <SCORE.INTRA.norm>  (1) 
0.112928

>  <SCORE.RESTR>  (1) 
0.000894099

>  <SCORE.RESTR.CAVITY>  (1) 
0.000894099

>  <SCORE.RESTR.norm>  (1) 
4.06409e-05

>  <SCORE.SYSTEM>  (1) 
-8.41934

>  <SCORE.SYSTEM.CONST>  (1) 
0

>  <SCORE.SYSTEM.DIHEDRAL>  (1) 
10.4825

>  <SCORE.SYSTEM.POLAR>  (1) 
-2.82835

>  <SCORE.SYSTEM.REPUL>  (1) 
0.00578634

>  <SCORE.SYSTEM.VDW>  (1) 
-4.07312

>  <SCORE.SYSTEM.norm>  (1) 
-0.382697

>  <SCORE.heavy>  (1) 
22

>  <SCORE.norm>  (1) 
-0.685409

$$$$
denovo_401
     RDKit          3D

 22 23  0  0  0  0  0  0  0  0999 V2000
  -10.0109    8.6518  -18.9392 C   0  0  0  0  0  0  0  0  0  0  0  0
   -9.1013    9.1711  -17.9783 O   0  0  0  0  0  0  0  0  0  0  0  0
   -7.8493    9.5219  -18.5722 C   0  0  0  0  0  0  0  0  0  0  0  0
   -7.0070   10.3613  -17.5867 C   0  0  2  0  0  0  0  0  0  0  0  0
   -7.8583   11.4962  -17.0279 C   0  0  0  0  0  0  0  0  0  0  0  0
   -7.8516   11.7564  -15.6491 C   0  0  0  0  0  0  0  0  0  0  0  0
   -8.6254   12.7886  -15.1159 C   0  0  0  0  0  0  0  0  0  0  0  0
   -9.4160   13.5727  -15.9527 C   0  0  0  0  0  0  0  0  0  0  0  0
   -9.4340   13.3253  -17.3233 C   0  0  0  0  0  0  0  0  0  0  0  0
   -8.6612   12.2934  -17.8589 C   0  0  0  0  0  0  0  0  0  0  0  0
   -5.6925   10.8872  -18.2178 C   0  0  2  0  0  0  0  0  0  0  0  0
   -4.8224    9.8102  -18.8740 C   0  0  0  0  0  0  0  0  0  0  0  0
   -3.3832   10.3319  -18.8197 C   0  0  0  0  0  0  0  0  0  0  0  0
   -3.4150   11.6225  -17.9965 C   0  0  2  0  0  0  0  0  0  0  0  0
   -2.2160   11.8633  -17.0631 C   0  0  0  0  0  0  0  0  0  0  0  0
   -0.9613   12.6052  -17.6388 C   0  0  0  0  0  0  0  0  0  0  0  0
    0.0927   12.7816  -16.5268 C   0  0  0  0  0  0  0  0  0  0  0  0
   -0.3594   11.6663  -18.7152 C   0  0  0  0  0  0  0  0  0  0  0  0
   -1.3188   13.9859  -18.2742 C   0  0  1  0  0  0  0  0  0  0  0  0
   -2.0982   14.9403  -17.3688 C   0  0  0  0  0  0  0  0  0  0  0  0
   -0.1391   14.6877  -18.6704 O   0  0  0  0  0  0  0  0  0  0  0  0
   -4.7229   11.5025  -17.2032 C   0  0  0  0  0  0  0  0  0  0  0  0
  1  2  1  0
  2  3  1  0
  4  3  1  6
  4  5  1  0
  5  6  2  0
  6  7  1  0
  7  8  2  0
  8  9  1  0
  9 10  2  0
  4 11  1  0
 11 12  1  1
 12 13  1  0
 13 14  1  0
 14 15  1  1
 15 16  1  0
 16 17  1  0
 16 18  1  0
 16 19  1  0
 19 20  1  1
 19 21  1  0
 14 22  1  0
 10  5  1  0
 22 11  1  0
M  END
>  <CHROM.0>  (2) 
-159.78051026,56.97183841,-62.87807127,114.53752488,-177.83253982,-74.91543733
-66.32379927,-177.66735496,-178.08804798,-177.84889093,-55.31466753

>  <CHROM.1>  (2) 
167.47726289,-49.51907925,133.63466333,-52.74777700,88.17450583,178.03959949
53.63396980,67.45313756,-5.12934295,11.79562656,-17.64532502,-2.92774308
0.17491841,0.46447329

>  <Name>  (2) 
denovo_401

>  <RI>  (2) 
-5.35378e+08

>  <Rbt.Current_Directory>  (2) 
/tmp/claude-0/-home-user-Rare-cancers/1af35c7f-7dc4-53ce-91d2-1631a2a10a85/scratchpad/smwork/cross/dock_8XTT-model20

>  <Rbt.Executable>  (2) 
rbdock - v25.07-alpha

>  <Rbt.Library>  (2) 
libRbt.so (25.07, Buildalpha)

>  <Rbt.Parameter_File>  (2) 
/tmp/claude-0/-home-user-Rare-cancers/1af35c7f-7dc4-53ce-91d2-1631a2a10a85/scratchpad/rdroot/share/rDock/data/scripts/dock.prm

>  <Rbt.Receptor>  (2) 
rec.prm

>  <SCORE>  (2) 
-14.8114

>  <SCORE.INTER>  (2) 
-10.0001

>  <SCORE.INTER.CONST>  (2) 
1

>  <SCORE.INTER.POLAR>  (2) 
-0.539799

>  <SCORE.INTER.REPUL>  (2) 
0

>  <SCORE.INTER.ROT>  (2) 
7

>  <SCORE.INTER.VDW>  (2) 
-20.5648

>  <SCORE.INTER.norm>  (2) 
-0.45455

>  <SCORE.INTRA>  (2) 
0.991061

>  <SCORE.INTRA.DIHEDRAL>  (2) 
2.09536

>  <SCORE.INTRA.DIHEDRAL.0>  (2) 
3.78927

>  <SCORE.INTRA.POLAR>  (2) 
0

>  <SCORE.INTRA.POLAR.0>  (2) 
0

>  <SCORE.INTRA.REPUL>  (2) 
0

>  <SCORE.INTRA.REPUL.0>  (2) 
0

>  <SCORE.INTRA.VDW>  (2) 
-0.0566197

>  <SCORE.INTRA.VDW.0>  (2) 
1.02728

>  <SCORE.INTRA.norm>  (2) 
0.0450482

>  <SCORE.RESTR>  (2) 
0.0304258

>  <SCORE.RESTR.CAVITY>  (2) 
0.0304258

>  <SCORE.RESTR.norm>  (2) 
0.00138299

>  <SCORE.SYSTEM>  (2) 
-5.83276

>  <SCORE.SYSTEM.CONST>  (2) 
0

>  <SCORE.SYSTEM.DIHEDRAL>  (2) 
9.04332

>  <SCORE.SYSTEM.POLAR>  (2) 
-1.81712

>  <SCORE.SYSTEM.REPUL>  (2) 
0.0956381

>  <SCORE.SYSTEM.VDW>  (2) 
-4.6544

>  <SCORE.SYSTEM.norm>  (2) 
-0.265125

>  <SCORE.heavy>  (2) 
22

>  <SCORE.norm>  (2) 
-0.673244

$$$$
denovo_401
     RDKit          3D

 22 23  0  0  0  0  0  0  0  0999 V2000
    0.5832   15.4616  -14.0154 C   0  0  0  0  0  0  0  0  0  0  0  0
    0.7968   14.9723  -15.3327 O   0  0  0  0  0  0  0  0  0  0  0  0
   -0.2439   15.3813  -16.2232 C   0  0  0  0  0  0  0  0  0  0  0  0
   -0.0752   14.6921  -17.5949 C   0  0  2  0  0  0  0  0  0  0  0  0
   -1.0163   15.3360  -18.6072 C   0  0  0  0  0  0  0  0  0  0  0  0
   -0.5261   15.7240  -19.8634 C   0  0  0  0  0  0  0  0  0  0  0  0
   -1.3694   16.3175  -20.8041 C   0  0  0  0  0  0  0  0  0  0  0  0
   -2.7120   16.5318  -20.5017 C   0  0  0  0  0  0  0  0  0  0  0  0
   -3.2128   16.1531  -19.2582 C   0  0  0  0  0  0  0  0  0  0  0  0
   -2.3712   15.5596  -18.3157 C   0  0  0  0  0  0  0  0  0  0  0  0
   -0.2732   13.1565  -17.5232 C   0  0  2  0  0  0  0  0  0  0  0  0
    0.3975   12.3716  -18.6554 C   0  0  0  0  0  0  0  0  0  0  0  0
   -0.4101   11.0799  -18.8166 C   0  0  0  0  0  0  0  0  0  0  0  0
   -1.6242   11.2032  -17.8921 C   0  0  2  0  0  0  0  0  0  0  0  0
   -2.9460   10.6236  -18.4247 C   0  0  0  0  0  0  0  0  0  0  0  0
   -4.1282   10.4166  -17.4168 C   0  0  0  0  0  0  0  0  0  0  0  0
   -3.6218    9.6612  -16.1711 C   0  0  0  0  0  0  0  0  0  0  0  0
   -4.5646   11.8334  -16.9648 C   0  0  0  0  0  0  0  0  0  0  0  0
   -5.3376    9.6638  -18.0558 C   0  0  1  0  0  0  0  0  0  0  0  0
   -5.0200    8.2810  -18.6259 C   0  0  0  0  0  0  0  0  0  0  0  0
   -6.3822    9.4700  -17.1006 O   0  0  0  0  0  0  0  0  0  0  0  0
   -1.7347   12.7151  -17.6549 C   0  0  0  0  0  0  0  0  0  0  0  0
  1  2  1  0
  2  3  1  0
  4  3  1  1
  4  5  1  0
  5  6  2  0
  6  7  1  0
  7  8  2  0
  8  9  1  0
  9 10  2  0
  4 11  1  0
 11 12  1  6
 12 13  1  0
 13 14  1  0
 14 15  1  6
 15 16  1  0
 16 17  1  0
 16 18  1  0
 16 19  1  0
 19 20  1  1
 19 21  1  0
 14 22  1  0
 10  5  1  0
 22 11  1  0
M  END
>  <CHROM.0>  (3) 
-161.94916004,59.34375760,169.06402733,74.64343186,57.85113517,-75.21044414
-65.10790901,-60.30925547,178.42716031,-65.97365461,-59.26576189

>  <CHROM.1>  (3) 
-173.01399152,-169.03052967,131.68642931,-156.97754045,166.00976326,-49.59453216
58.03960038,174.32453110,-2.11924157,12.94432826,-17.82831170,-0.69137841
0.71750849,2.44111612

>  <Name>  (3) 
denovo_401

>  <RI>  (3) 
-5.35378e+08

>  <Rbt.Current_Directory>  (3) 
/tmp/claude-0/-home-user-Rare-cancers/1af35c7f-7dc4-53ce-91d2-1631a2a10a85/scratchpad/smwork/cross/dock_8XTT-model20

>  <Rbt.Executable>  (3) 
rbdock - v25.07-alpha

>  <Rbt.Library>  (3) 
libRbt.so (25.07, Buildalpha)

>  <Rbt.Parameter_File>  (3) 
/tmp/claude-0/-home-user-Rare-cancers/1af35c7f-7dc4-53ce-91d2-1631a2a10a85/scratchpad/rdroot/share/rDock/data/scripts/dock.prm

>  <Rbt.Receptor>  (3) 
rec.prm

>  <SCORE>  (3) 
-13.3088

>  <SCORE.INTER>  (3) 
-13.5005

>  <SCORE.INTER.CONST>  (3) 
1

>  <SCORE.INTER.POLAR>  (3) 
-0.846158

>  <SCORE.INTER.REPUL>  (3) 
0

>  <SCORE.INTER.ROT>  (3) 
7

>  <SCORE.INTER.VDW>  (3) 
-23.0236

>  <SCORE.INTER.norm>  (3) 
-0.61366

>  <SCORE.INTRA>  (3) 
3.06308

>  <SCORE.INTRA.DIHEDRAL>  (3) 
1.16165

>  <SCORE.INTRA.DIHEDRAL.0>  (3) 
3.78927

>  <SCORE.INTRA.POLAR>  (3) 
0

>  <SCORE.INTRA.POLAR.0>  (3) 
0

>  <SCORE.INTRA.REPUL>  (3) 
0

>  <SCORE.INTRA.REPUL.0>  (3) 
0

>  <SCORE.INTRA.VDW>  (3) 
2.48225

>  <SCORE.INTRA.VDW.0>  (3) 
1.02728

>  <SCORE.INTRA.norm>  (3) 
0.139231

>  <SCORE.RESTR>  (3) 
0

>  <SCORE.RESTR.CAVITY>  (3) 
0

>  <SCORE.RESTR.norm>  (3) 
0

>  <SCORE.SYSTEM>  (3) 
-2.87139

>  <SCORE.SYSTEM.CONST>  (3) 
0

>  <SCORE.SYSTEM.DIHEDRAL>  (3) 
3.41347

>  <SCORE.SYSTEM.POLAR>  (3) 
-1.21251

>  <SCORE.SYSTEM.REPUL>  (3) 
0.064461

>  <SCORE.SYSTEM.VDW>  (3) 
-0.777899

>  <SCORE.SYSTEM.norm>  (3) 
-0.130518

>  <SCORE.heavy>  (3) 
22

>  <SCORE.norm>  (3) 
-0.604947

$$$$
denovo_401
     RDKit          3D

 22 23  0  0  0  0  0  0  0  0999 V2000
    0.8015   12.0104  -18.5856 C   0  0  0  0  0  0  0  0  0  0  0  0
   -0.5192   12.3151  -19.0138 O   0  0  0  0  0  0  0  0  0  0  0  0
   -1.4980   11.8344  -18.0896 C   0  0  0  0  0  0  0  0  0  0  0  0
   -2.9123   12.2631  -18.5379 C   0  0  2  0  0  0  0  0  0  0  0  0
   -3.0251   13.7827  -18.4821 C   0  0  0  0  0  0  0  0  0  0  0  0
   -2.7449   14.4571  -17.2840 C   0  0  0  0  0  0  0  0  0  0  0  0
   -2.8444   15.8475  -17.2099 C   0  0  0  0  0  0  0  0  0  0  0  0
   -3.2260   16.5812  -18.3306 C   0  0  0  0  0  0  0  0  0  0  0  0
   -3.5087   15.9254  -19.5266 C   0  0  0  0  0  0  0  0  0  0  0  0
   -3.4101   14.5350  -19.6031 C   0  0  0  0  0  0  0  0  0  0  0  0
   -4.0352   11.5740  -17.7215 C   0  0  2  0  0  0  0  0  0  0  0  0
   -3.8755   10.0580  -17.5671 C   0  0  0  0  0  0  0  0  0  0  0  0
   -5.2876    9.4973  -17.3714 C   0  0  0  0  0  0  0  0  0  0  0  0
   -6.2557   10.6662  -17.5725 C   0  0  2  0  0  0  0  0  0  0  0  0
   -7.5737   10.3406  -18.2962 C   0  0  0  0  0  0  0  0  0  0  0  0
   -8.7190   11.4102  -18.2746 C   0  0  0  0  0  0  0  0  0  0  0  0
   -8.8993   11.9486  -16.8406 C   0  0  0  0  0  0  0  0  0  0  0  0
   -8.2318   12.5840  -19.1618 C   0  0  0  0  0  0  0  0  0  0  0  0
  -10.0714   10.8534  -18.8212 C   0  0  1  0  0  0  0  0  0  0  0  0
  -10.6815    9.7078  -18.0128 C   0  0  0  0  0  0  0  0  0  0  0  0
  -11.0647   11.8790  -18.8701 O   0  0  0  0  0  0  0  0  0  0  0  0
   -5.4220   11.6822  -18.3644 C   0  0  0  0  0  0  0  0  0  0  0  0
  1  2  1  0
  2  3  1  0
  4  3  1  1
  4  5  1  0
  5  6  2  0
  6  7  1  0
  7  8  2  0
  8  9  1  0
  9 10  2  0
  4 11  1  0
 11 12  1  6
 12 13  1  0
 13 14  1  0
 14 15  1  6
 15 16  1  0
 16 17  1  0
 16 18  1  0
 16 19  1  0
 19 20  1  1
 19 21  1  0
 14 22  1  0
 10  5  1  0
 22 11  1  0
M  END
>  <CHROM.0>  (4) 
-158.94454930,63.51309914,-63.30347110,-178.77997239,-76.72280190,50.97529493
176.08746729,177.31722415,69.40720411,-59.76354405,63.59353514

>  <CHROM.1>  (4) 
176.27482751,-64.81924204,-55.58653221,-47.96467854,167.75235873,-46.44510069
63.13389928,168.18427973,-5.20275157,12.29456885,-18.26024488,-0.31464913
0.02235708,3.01322014

>  <Name>  (4) 
denovo_401

>  <RI>  (4) 
-5.35378e+08

>  <Rbt.Current_Directory>  (4) 
/tmp/claude-0/-home-user-Rare-cancers/1af35c7f-7dc4-53ce-91d2-1631a2a10a85/scratchpad/smwork/cross/dock_8XTT-model20

>  <Rbt.Executable>  (4) 
rbdock - v25.07-alpha

>  <Rbt.Library>  (4) 
libRbt.so (25.07, Buildalpha)

>  <Rbt.Parameter_File>  (4) 
/tmp/claude-0/-home-user-Rare-cancers/1af35c7f-7dc4-53ce-91d2-1631a2a10a85/scratchpad/rdroot/share/rDock/data/scripts/dock.prm

>  <Rbt.Receptor>  (4) 
rec.prm

>  <SCORE>  (4) 
-12.9952

>  <SCORE.INTER>  (4) 
-8.96931

>  <SCORE.INTER.CONST>  (4) 
1

>  <SCORE.INTER.POLAR>  (4) 
-1.14698

>  <SCORE.INTER.REPUL>  (4) 
0.122864

>  <SCORE.INTER.ROT>  (4) 
7

>  <SCORE.INTER.VDW>  (4) 
-18.0839

>  <SCORE.INTER.norm>  (4) 
-0.407696

>  <SCORE.INTRA>  (4) 
1.98394

>  <SCORE.INTRA.DIHEDRAL>  (4) 
-0.17475

>  <SCORE.INTRA.DIHEDRAL.0>  (4) 
3.78927

>  <SCORE.INTRA.POLAR>  (4) 
0

>  <SCORE.INTRA.POLAR.0>  (4) 
0

>  <SCORE.INTRA.REPUL>  (4) 
0

>  <SCORE.INTRA.REPUL.0>  (4) 
0

>  <SCORE.INTRA.VDW>  (4) 
2.07132

>  <SCORE.INTRA.VDW.0>  (4) 
1.02728

>  <SCORE.INTRA.norm>  (4) 
0.0901793

>  <SCORE.RESTR>  (4) 
0

>  <SCORE.RESTR.CAVITY>  (4) 
0

>  <SCORE.RESTR.norm>  (4) 
0

>  <SCORE.SYSTEM>  (4) 
-6.00988

>  <SCORE.SYSTEM.CONST>  (4) 
0

>  <SCORE.SYSTEM.DIHEDRAL>  (4) 
2.97426

>  <SCORE.SYSTEM.POLAR>  (4) 
-1.00368

>  <SCORE.SYSTEM.REPUL>  (4) 
0.0942249

>  <SCORE.SYSTEM.VDW>  (4) 
-4.55563

>  <SCORE.SYSTEM.norm>  (4) 
-0.273176

>  <SCORE.heavy>  (4) 
22

>  <SCORE.norm>  (4) 
-0.590693

$$$$
denovo_401
     RDKit          3D

 22 23  0  0  0  0  0  0  0  0999 V2000
  -10.0449    8.6467  -19.0051 C   0  0  0  0  0  0  0  0  0  0  0  0
   -9.0675    9.5988  -18.6071 O   0  0  0  0  0  0  0  0  0  0  0  0
   -8.3493    9.1659  -17.4494 C   0  0  0  0  0  0  0  0  0  0  0  0
   -7.4792   10.3170  -16.8989 C   0  0  2  0  0  0  0  0  0  0  0  0
   -8.3265   11.5780  -16.7684 C   0  0  0  0  0  0  0  0  0  0  0  0
   -8.7321   12.2655  -17.9224 C   0  0  0  0  0  0  0  0  0  0  0  0
   -9.5058   13.4234  -17.8259 C   0  0  0  0  0  0  0  0  0  0  0  0
   -9.8828   13.9094  -16.5763 C   0  0  0  0  0  0  0  0  0  0  0  0
   -9.4865   13.2383  -15.4218 C   0  0  0  0  0  0  0  0  0  0  0  0
   -8.7125   12.0803  -15.5157 C   0  0  0  0  0  0  0  0  0  0  0  0
   -6.2065   10.5661  -17.7479 C   0  0  2  0  0  0  0  0  0  0  0  0
   -5.3650    9.3152  -18.0212 C   0  0  0  0  0  0  0  0  0  0  0  0
   -3.9295    9.8046  -18.2369 C   0  0  0  0  0  0  0  0  0  0  0  0
   -3.9267   11.3047  -17.9306 C   0  0  2  0  0  0  0  0  0  0  0  0
   -2.6797   11.8498  -17.2131 C   0  0  0  0  0  0  0  0  0  0  0  0
   -1.4882   12.3742  -18.0856 C   0  0  0  0  0  0  0  0  0  0  0  0
   -1.9047   13.6729  -18.8059 C   0  0  0  0  0  0  0  0  0  0  0  0
   -0.3495   12.7280  -17.0953 C   0  0  0  0  0  0  0  0  0  0  0  0
   -0.9879   11.3153  -19.1182 C   0  0  1  0  0  0  0  0  0  0  0  0
    0.1720   11.7656  -20.0068 C   0  0  0  0  0  0  0  0  0  0  0  0
   -0.5464   10.1270  -18.4594 O   0  0  0  0  0  0  0  0  0  0  0  0
   -5.1873   11.4925  -17.0763 C   0  0  0  0  0  0  0  0  0  0  0  0
  1  2  1  0
  2  3  1  0
  4  3  1  6
  4  5  1  0
  5  6  2  0
  6  7  1  0
  7  8  2  0
  8  9  1  0
  9 10  2  0
  4 11  1  0
 11 12  1  1
 12 13  1  0
 13 14  1  0
 14 15  1  1
 15 16  1  0
 16 17  1  0
 16 18  1  0
 16 19  1  0
 19 20  1  1
 19 21  1  0
 14 22  1  0
 10  5  1  0
 22 11  1  0
M  END
>  <CHROM.0>  (5) 
25.52157790,-176.19326941,172.02247034,179.99165851,-76.25631358,-77.13341718
-62.10202945,-54.41242592,-178.90549148,-61.50303988,179.71178200

>  <CHROM.1>  (5) 
-170.02718785,49.37657200,-71.76114719,-51.26538344,90.57723041,68.90315287
179.77836224,62.00945912,-5.44668737,11.33970222,-17.76124723,3.12822589
0.15536710,0.37486887

>  <Name>  (5) 
denovo_401

>  <RI>  (5) 
-5.35378e+08

>  <Rbt.Current_Directory>  (5) 
/tmp/claude-0/-home-user-Rare-cancers/1af35c7f-7dc4-53ce-91d2-1631a2a10a85/scratchpad/smwork/cross/dock_8XTT-model20

>  <Rbt.Executable>  (5) 
rbdock - v25.07-alpha

>  <Rbt.Library>  (5) 
libRbt.so (25.07, Buildalpha)

>  <Rbt.Parameter_File>  (5) 
/tmp/claude-0/-home-user-Rare-cancers/1af35c7f-7dc4-53ce-91d2-1631a2a10a85/scratchpad/rdroot/share/rDock/data/scripts/dock.prm

>  <Rbt.Receptor>  (5) 
rec.prm

>  <SCORE>  (5) 
-12.2746

>  <SCORE.INTER>  (5) 
-8.59121

>  <SCORE.INTER.CONST>  (5) 
1

>  <SCORE.INTER.POLAR>  (5) 
0

>  <SCORE.INTER.REPUL>  (5) 
0

>  <SCORE.INTER.ROT>  (5) 
7

>  <SCORE.INTER.VDW>  (5) 
-20.9912

>  <SCORE.INTER.norm>  (5) 
-0.390509

>  <SCORE.INTRA>  (5) 
1.2373

>  <SCORE.INTRA.DIHEDRAL>  (5) 
1.92124

>  <SCORE.INTRA.DIHEDRAL.0>  (5) 
3.78927

>  <SCORE.INTRA.POLAR>  (5) 
0

>  <SCORE.INTRA.POLAR.0>  (5) 
0

>  <SCORE.INTRA.REPUL>  (5) 
0

>  <SCORE.INTRA.REPUL.0>  (5) 
0

>  <SCORE.INTRA.VDW>  (5) 
0.276678

>  <SCORE.INTRA.VDW.0>  (5) 
1.02728

>  <SCORE.INTRA.norm>  (5) 
0.0562409

>  <SCORE.RESTR>  (5) 
0.0410182

>  <SCORE.RESTR.CAVITY>  (5) 
0.0410182

>  <SCORE.RESTR.norm>  (5) 
0.00186446

>  <SCORE.SYSTEM>  (5) 
-4.96175

>  <SCORE.SYSTEM.CONST>  (5) 
0

>  <SCORE.SYSTEM.DIHEDRAL>  (5) 
4.0077

>  <SCORE.SYSTEM.POLAR>  (5) 
-1.18673

>  <SCORE.SYSTEM.VDW>  (5) 
-2.93072

>  <SCORE.SYSTEM.norm>  (5) 
-0.225534

>  <SCORE.heavy>  (5) 
22

>  <SCORE.norm>  (5) 
-0.557938

$$$$
denovo_401
     RDKit          3D

 22 23  0  0  0  0  0  0  0  0999 V2000
  -10.1653    8.6149  -19.0393 C   0  0  0  0  0  0  0  0  0  0  0  0
   -9.2245    9.5873  -18.6038 O   0  0  0  0  0  0  0  0  0  0  0  0
   -8.5110    9.1498  -17.4450 C   0  0  0  0  0  0  0  0  0  0  0  0
   -7.5330   10.2480  -16.9733 C   0  0  2  0  0  0  0  0  0  0  0  0
   -8.2833   11.5667  -16.8211 C   0  0  0  0  0  0  0  0  0  0  0  0
   -8.6726   12.2811  -17.9643 C   0  0  0  0  0  0  0  0  0  0  0  0
   -9.3580   13.4916  -17.8480 C   0  0  0  0  0  0  0  0  0  0  0  0
   -9.6620   14.0039  -16.5890 C   0  0  0  0  0  0  0  0  0  0  0  0
   -9.2809   13.3066  -15.4450 C   0  0  0  0  0  0  0  0  0  0  0  0
   -8.5950   12.0959  -15.5588 C   0  0  0  0  0  0  0  0  0  0  0  0
   -6.3005   10.3931  -17.9020 C   0  0  2  0  0  0  0  0  0  0  0  0
   -5.5714    9.0805  -18.2070 C   0  0  0  0  0  0  0  0  0  0  0  0
   -4.1200    9.4599  -18.5172 C   0  0  0  0  0  0  0  0  0  0  0  0
   -3.9883   10.9589  -18.2346 C   0  0  2  0  0  0  0  0  0  0  0  0
   -2.6628   11.4178  -17.6029 C   0  0  0  0  0  0  0  0  0  0  0  0
   -1.4295   11.6459  -18.5426 C   0  0  0  0  0  0  0  0  0  0  0  0
   -1.2328   10.4136  -19.4490 C   0  0  0  0  0  0  0  0  0  0  0  0
   -1.7944   12.8471  -19.4517 C   0  0  0  0  0  0  0  0  0  0  0  0
   -0.1196   11.9541  -17.7508 C   0  0  1  0  0  0  0  0  0  0  0  0
    1.1171   12.2186  -18.6102 C   0  0  0  0  0  0  0  0  0  0  0  0
   -0.2819   13.1061  -16.9217 O   0  0  0  0  0  0  0  0  0  0  0  0
   -5.1765   11.2487  -17.3080 C   0  0  0  0  0  0  0  0  0  0  0  0
  1  2  1  0
  2  3  1  0
  4  3  1  6
  4  5  1  0
  5  6  2  0
  6  7  1  0
  7  8  2  0
  8  9  1  0
  9 10  2  0
  4 11  1  0
 11 12  1  1
 12 13  1  0
 13 14  1  0
 14 15  1  1
 15 16  1  0
 16 17  1  0
 16 18  1  0
 16 19  1  0
 19 20  1  6
 19 21  1  0
 14 22  1  0
 10  5  1  0
 22 11  1  0
M  END
>  <CHROM.0>  (6) 
33.25946458,61.95914887,-62.60448678,111.32541960,-177.63501134,-73.22617370
-66.62494710,-55.97242872,68.11043247,-61.44398053,63.23119339

>  <CHROM.1>  (6) 
-178.13906849,51.96553712,-73.84092311,-50.73537292,81.95311829,-50.26672217
-178.67315925,65.08941692,-5.39745266,11.29747543,-17.79575600,-3.11872833
0.13409731,0.43716805

>  <Name>  (6) 
denovo_401

>  <RI>  (6) 
-5.35378e+08

>  <Rbt.Current_Directory>  (6) 
/tmp/claude-0/-home-user-Rare-cancers/1af35c7f-7dc4-53ce-91d2-1631a2a10a85/scratchpad/smwork/cross/dock_8XTT-model20

>  <Rbt.Executable>  (6) 
rbdock - v25.07-alpha

>  <Rbt.Library>  (6) 
libRbt.so (25.07, Buildalpha)

>  <Rbt.Parameter_File>  (6) 
/tmp/claude-0/-home-user-Rare-cancers/1af35c7f-7dc4-53ce-91d2-1631a2a10a85/scratchpad/rdroot/share/rDock/data/scripts/dock.prm

>  <Rbt.Receptor>  (6) 
rec.prm

>  <SCORE>  (6) 
-11.4434

>  <SCORE.INTER>  (6) 
-7.95088

>  <SCORE.INTER.CONST>  (6) 
1

>  <SCORE.INTER.POLAR>  (6) 
0

>  <SCORE.INTER.REPUL>  (6) 
0

>  <SCORE.INTER.ROT>  (6) 
7

>  <SCORE.INTER.VDW>  (6) 
-20.3509

>  <SCORE.INTER.norm>  (6) 
-0.361404

>  <SCORE.INTRA>  (6) 
1.76538

>  <SCORE.INTRA.DIHEDRAL>  (6) 
0.0630798

>  <SCORE.INTRA.DIHEDRAL.0>  (6) 
3.78927

>  <SCORE.INTRA.POLAR>  (6) 
0

>  <SCORE.INTRA.POLAR.0>  (6) 
0

>  <SCORE.INTRA.REPUL>  (6) 
0

>  <SCORE.INTRA.REPUL.0>  (6) 
0

>  <SCORE.INTRA.VDW>  (6) 
1.73384

>  <SCORE.INTRA.VDW.0>  (6) 
1.02728

>  <SCORE.INTRA.norm>  (6) 
0.0802445

>  <SCORE.RESTR>  (6) 
0

>  <SCORE.RESTR.CAVITY>  (6) 
0

>  <SCORE.RESTR.norm>  (6) 
0

>  <SCORE.SYSTEM>  (6) 
-5.25788

>  <SCORE.SYSTEM.CONST>  (6) 
0

>  <SCORE.SYSTEM.DIHEDRAL>  (6) 
9.75934

>  <SCORE.SYSTEM.POLAR>  (6) 
-2.38634

>  <SCORE.SYSTEM.REPUL>  (6) 
0.109408

>  <SCORE.SYSTEM.VDW>  (6) 
-2.57103

>  <SCORE.SYSTEM.norm>  (6) 
-0.238995

>  <SCORE.heavy>  (6) 
22

>  <SCORE.norm>  (6) 
-0.520154

$$$$
denovo_401
     RDKit          3D

 22 23  0  0  0  0  0  0  0  0999 V2000
   -3.6495    8.7956  -21.2267 C   0  0  0  0  0  0  0  0  0  0  0  0
   -3.8908   10.0264  -20.5578 O   0  0  0  0  0  0  0  0  0  0  0  0
   -2.7797   10.4125  -19.7455 C   0  0  0  0  0  0  0  0  0  0  0  0
   -3.0341   11.7998  -19.1165 C   0  0  2  0  0  0  0  0  0  0  0  0
   -1.7689   12.2797  -18.4137 C   0  0  0  0  0  0  0  0  0  0  0  0
   -0.8977   13.1593  -19.0742 C   0  0  0  0  0  0  0  0  0  0  0  0
    0.2673   13.6091  -18.4504 C   0  0  0  0  0  0  0  0  0  0  0  0
    0.5770   13.1853  -17.1603 C   0  0  0  0  0  0  0  0  0  0  0  0
   -0.2775   12.3113  -16.4925 C   0  0  0  0  0  0  0  0  0  0  0  0
   -1.4431   11.8598  -17.1144 C   0  0  0  0  0  0  0  0  0  0  0  0
   -4.2585   11.8123  -18.1660 C   0  0  2  0  0  0  0  0  0  0  0  0
   -4.2645   10.6965  -17.1160 C   0  0  0  0  0  0  0  0  0  0  0  0
   -5.7346   10.4495  -16.7635 C   0  0  0  0  0  0  0  0  0  0  0  0
   -6.5657   11.3065  -17.7220 C   0  0  2  0  0  0  0  0  0  0  0  0
   -7.8764   10.6816  -18.2304 C   0  0  0  0  0  0  0  0  0  0  0  0
   -9.2316   11.3418  -17.8019 C   0  0  0  0  0  0  0  0  0  0  0  0
  -10.4094   10.5331  -18.3829 C   0  0  0  0  0  0  0  0  0  0  0  0
   -9.2984   11.2297  -16.2574 C   0  0  0  0  0  0  0  0  0  0  0  0
   -9.3335   12.8388  -18.2335 C   0  0  1  0  0  0  0  0  0  0  0  0
   -9.1546   13.1018  -19.7291 C   0  0  0  0  0  0  0  0  0  0  0  0
  -10.6052   13.3871  -17.8824 O   0  0  0  0  0  0  0  0  0  0  0  0
   -5.5959   11.5838  -18.8782 C   0  0  0  0  0  0  0  0  0  0  0  0
  1  2  1  0
  2  3  1  0
  4  3  1  1
  4  5  1  0
  5  6  2  0
  6  7  1  0
  7  8  2  0
  8  9  1  0
  9 10  2  0
  4 11  1  0
 11 12  1  1
 12 13  1  0
 13 14  1  0
 14 15  1  6
 15 16  1  0
 16 17  1  0
 16 18  1  0
 16 19  1  0
 19 20  1  6
 19 21  1  0
 14 22  1  0
 10  5  1  0
 22 11  1  0
M  END
>  <CHROM.0>  (7) 
-159.83809923,61.03553959,172.58091365,177.55639139,-78.27636039,51.83373261
173.27211705,-179.47511340,69.04245177,-178.72813089,60.80485579

>  <CHROM.1>  (7) 
175.89878584,-172.26592514,97.27609579,50.22665421,114.24310947,-178.20830587
56.47938452,66.50304388,-5.11331618,11.62611607,-18.32440135,-0.00785175
-0.04717680,-2.32369112

>  <Name>  (7) 
denovo_401

>  <RI>  (7) 
-5.35378e+08

>  <Rbt.Current_Directory>  (7) 
/tmp/claude-0/-home-user-Rare-cancers/1af35c7f-7dc4-53ce-91d2-1631a2a10a85/scratchpad/smwork/cross/dock_8XTT-model20

>  <Rbt.Executable>  (7) 
rbdock - v25.07-alpha

>  <Rbt.Library>  (7) 
libRbt.so (25.07, Buildalpha)

>  <Rbt.Parameter_File>  (7) 
/tmp/claude-0/-home-user-Rare-cancers/1af35c7f-7dc4-53ce-91d2-1631a2a10a85/scratchpad/rdroot/share/rDock/data/scripts/dock.prm

>  <Rbt.Receptor>  (7) 
rec.prm

>  <SCORE>  (7) 
-10.9360

>  <SCORE.INTER>  (7) 
-7.39852

>  <SCORE.INTER.CONST>  (7) 
1

>  <SCORE.INTER.POLAR>  (7) 
-0.472287

>  <SCORE.INTER.REPUL>  (7) 
0

>  <SCORE.INTER.ROT>  (7) 
7

>  <SCORE.INTER.VDW>  (7) 
-18.1927

>  <SCORE.INTER.norm>  (7) 
-0.336297

>  <SCORE.INTRA>  (7) 
2.76478

>  <SCORE.INTRA.DIHEDRAL>  (7) 
4.48239

>  <SCORE.INTRA.DIHEDRAL.0>  (7) 
3.78927

>  <SCORE.INTRA.POLAR>  (7) 
0

>  <SCORE.INTRA.POLAR.0>  (7) 
0

>  <SCORE.INTRA.REPUL>  (7) 
0

>  <SCORE.INTRA.REPUL.0>  (7) 
0

>  <SCORE.INTRA.VDW>  (7) 
0.523583

>  <SCORE.INTRA.VDW.0>  (7) 
1.02728

>  <SCORE.INTRA.norm>  (7) 
0.125672

>  <SCORE.RESTR>  (7) 
0.00118899

>  <SCORE.RESTR.CAVITY>  (7) 
0.00118899

>  <SCORE.RESTR.norm>  (7) 
5.40449e-05

>  <SCORE.SYSTEM>  (7) 
-6.3034

>  <SCORE.SYSTEM.CONST>  (7) 
0

>  <SCORE.SYSTEM.DIHEDRAL>  (7) 
3.25145

>  <SCORE.SYSTEM.POLAR>  (7) 
-0.967501

>  <SCORE.SYSTEM.REPUL>  (7) 
0.106016

>  <SCORE.SYSTEM.VDW>  (7) 
-5.1697

>  <SCORE.SYSTEM.norm>  (7) 
-0.286518

>  <SCORE.heavy>  (7) 
22

>  <SCORE.norm>  (7) 
-0.497089

$$$$
denovo_401
     RDKit          3D

 22 23  0  0  0  0  0  0  0  0999 V2000
    0.7131   11.4032  -20.4640 C   0  0  0  0  0  0  0  0  0  0  0  0
    0.8744   11.4083  -19.0517 O   0  0  0  0  0  0  0  0  0  0  0  0
   -0.2884   10.9105  -18.3858 C   0  0  0  0  0  0  0  0  0  0  0  0
   -1.4144   11.9671  -18.4149 C   0  0  2  0  0  0  0  0  0  0  0  0
   -0.9240   13.2518  -17.7559 C   0  0  0  0  0  0  0  0  0  0  0  0
   -0.3878   13.2076  -16.4600 C   0  0  0  0  0  0  0  0  0  0  0  0
    0.0646   14.3720  -15.8369 C   0  0  0  0  0  0  0  0  0  0  0  0
   -0.0140   15.5945  -16.4996 C   0  0  0  0  0  0  0  0  0  0  0  0
   -0.5452   15.6542  -17.7859 C   0  0  0  0  0  0  0  0  0  0  0  0
   -0.9985   14.4912  -18.4110 C   0  0  0  0  0  0  0  0  0  0  0  0
   -2.7306   11.4592  -17.7729 C   0  0  2  0  0  0  0  0  0  0  0  0
   -3.0844   10.0056  -18.1039 C   0  0  0  0  0  0  0  0  0  0  0  0
   -4.6084    9.9004  -17.9911 C   0  0  0  0  0  0  0  0  0  0  0  0
   -5.1300   11.3203  -17.7543 C   0  0  2  0  0  0  0  0  0  0  0  0
   -6.4544   11.6827  -18.4483 C   0  0  0  0  0  0  0  0  0  0  0  0
   -7.7548   10.9237  -18.0138 C   0  0  0  0  0  0  0  0  0  0  0  0
   -8.9837   11.5780  -18.6775 C   0  0  0  0  0  0  0  0  0  0  0  0
   -7.6247    9.4852  -18.5759 C   0  0  0  0  0  0  0  0  0  0  0  0
   -7.9337   10.8771  -16.4634 C   0  0  1  0  0  0  0  0  0  0  0  0
   -7.9526   12.2377  -15.7661 C   0  0  0  0  0  0  0  0  0  0  0  0
   -9.1575   10.2311  -16.1087 O   0  0  0  0  0  0  0  0  0  0  0  0
   -3.9801   12.2059  -18.2520 C   0  0  0  0  0  0  0  0  0  0  0  0
  1  2  1  0
  2  3  1  0
  4  3  1  1
  4  5  1  0
  5  6  2  0
  6  7  1  0
  7  8  2  0
  8  9  1  0
  9 10  2  0
  4 11  1  0
 11 12  1  6
 12 13  1  0
 13 14  1  0
 14 15  1  6
 15 16  1  0
 16 17  1  0
 16 18  1  0
 16 19  1  0
 19 20  1  6
 19 21  1  0
 14 22  1  0
 10  5  1  0
 22 11  1  0
M  END
>  <CHROM.0>  (8) 
-161.62306103,65.43879682,175.76159437,-177.47387979,-81.51604956,-75.50814724
53.47912796,-61.55403229,-70.37186889,70.25388189,62.48927175

>  <CHROM.1>  (8) 
-74.92323047,-57.96226798,-53.85135586,-40.37570042,64.99988385,171.77655967
56.63835325,62.18880008,-3.65007156,11.93522614,-17.78700257,-0.20595672
-0.22289799,-2.57641339

>  <Name>  (8) 
denovo_401

>  <RI>  (8) 
-5.35378e+08

>  <Rbt.Current_Directory>  (8) 
/tmp/claude-0/-home-user-Rare-cancers/1af35c7f-7dc4-53ce-91d2-1631a2a10a85/scratchpad/smwork/cross/dock_8XTT-model20

>  <Rbt.Executable>  (8) 
rbdock - v25.07-alpha

>  <Rbt.Library>  (8) 
libRbt.so (25.07, Buildalpha)

>  <Rbt.Parameter_File>  (8) 
/tmp/claude-0/-home-user-Rare-cancers/1af35c7f-7dc4-53ce-91d2-1631a2a10a85/scratchpad/rdroot/share/rDock/data/scripts/dock.prm

>  <Rbt.Receptor>  (8) 
rec.prm

>  <SCORE>  (8) 
-10.9123

>  <SCORE.INTER>  (8) 
-6.3353

>  <SCORE.INTER.CONST>  (8) 
1

>  <SCORE.INTER.POLAR>  (8) 
0

>  <SCORE.INTER.REPUL>  (8) 
0.00545999

>  <SCORE.INTER.ROT>  (8) 
7

>  <SCORE.INTER.VDW>  (8) 
-18.7626

>  <SCORE.INTER.norm>  (8) 
-0.287968

>  <SCORE.INTRA>  (8) 
2.04052

>  <SCORE.INTRA.DIHEDRAL>  (8) 
0.490485

>  <SCORE.INTRA.DIHEDRAL.0>  (8) 
3.78927

>  <SCORE.INTRA.POLAR>  (8) 
0

>  <SCORE.INTRA.POLAR.0>  (8) 
0

>  <SCORE.INTRA.REPUL>  (8) 
0

>  <SCORE.INTRA.REPUL.0>  (8) 
0

>  <SCORE.INTRA.VDW>  (8) 
1.79528

>  <SCORE.INTRA.VDW.0>  (8) 
1.02728

>  <SCORE.INTRA.norm>  (8) 
0.0927511

>  <SCORE.RESTR>  (8) 
0

>  <SCORE.RESTR.CAVITY>  (8) 
0

>  <SCORE.RESTR.norm>  (8) 
0

>  <SCORE.SYSTEM>  (8) 
-6.61747

>  <SCORE.SYSTEM.CONST>  (8) 
0

>  <SCORE.SYSTEM.DIHEDRAL>  (8) 
5.02581

>  <SCORE.SYSTEM.POLAR>  (8) 
-1.89004

>  <SCORE.SYSTEM.REPUL>  (8) 
0.00761325

>  <SCORE.SYSTEM.VDW>  (8) 
-2.74233

>  <SCORE.SYSTEM.norm>  (8) 
-0.300794

>  <SCORE.heavy>  (8) 
22

>  <SCORE.norm>  (8) 
-0.496011

$$$$
denovo_401
     RDKit          3D

 22 23  0  0  0  0  0  0  0  0999 V2000
    0.4597   11.0457  -20.5596 C   0  0  0  0  0  0  0  0  0  0  0  0
    0.6783   11.3079  -19.1798 O   0  0  0  0  0  0  0  0  0  0  0  0
   -0.4267   10.8810  -18.3797 C   0  0  0  0  0  0  0  0  0  0  0  0
   -1.6388   11.8116  -18.6023 C   0  0  2  0  0  0  0  0  0  0  0  0
   -1.2328   13.2534  -18.3171 C   0  0  0  0  0  0  0  0  0  0  0  0
   -1.4756   14.2471  -19.2775 C   0  0  0  0  0  0  0  0  0  0  0  0
   -1.1097   15.5728  -19.0382 C   0  0  0  0  0  0  0  0  0  0  0  0
   -0.4959   15.9221  -17.8377 C   0  0  0  0  0  0  0  0  0  0  0  0
   -0.2472   14.9463  -16.8753 C   0  0  0  0  0  0  0  0  0  0  0  0
   -0.6120   13.6198  -17.1125 C   0  0  0  0  0  0  0  0  0  0  0  0
   -2.8791   11.3901  -17.7737 C   0  0  2  0  0  0  0  0  0  0  0  0
   -3.2967    9.9262  -17.9469 C   0  0  0  0  0  0  0  0  0  0  0  0
   -4.7984    9.8721  -17.6493 C   0  0  0  0  0  0  0  0  0  0  0  0
   -5.2616   11.3197  -17.4646 C   0  0  2  0  0  0  0  0  0  0  0  0
   -6.6518   11.6656  -18.0255 C   0  0  0  0  0  0  0  0  0  0  0  0
   -7.9143   11.2481  -17.1963 C   0  0  0  0  0  0  0  0  0  0  0  0
   -8.0304    9.7105  -17.1664 C   0  0  0  0  0  0  0  0  0  0  0  0
   -7.6584   11.7305  -15.7457 C   0  0  0  0  0  0  0  0  0  0  0  0
   -9.2308   11.8829  -17.7456 C   0  0  1  0  0  0  0  0  0  0  0  0
   -9.2890   13.4102  -17.6999 C   0  0  0  0  0  0  0  0  0  0  0  0
   -9.4447   11.5172  -19.1100 O   0  0  0  0  0  0  0  0  0  0  0  0
   -4.1623   12.1331  -18.1605 C   0  0  0  0  0  0  0  0  0  0  0  0
  1  2  1  0
  2  3  1  0
  4  3  1  1
  4  5  1  0
  5  6  2  0
  6  7  1  0
  7  8  2  0
  8  9  1  0
  9 10  2  0
  4 11  1  0
 11 12  1  6
 12 13  1  0
 13 14  1  0
 14 15  1  6
 15 16  1  0
 16 17  1  0
 16 18  1  0
 16 19  1  0
 19 20  1  6
 19 21  1  0
 14 22  1  0
 10  5  1  0
 22 11  1  0
M  END
>  <CHROM.0>  (9) 
20.35775822,-58.16703112,175.27110179,76.35148230,-76.47025202,-76.42392578
176.75246488,-55.16504615,-177.66364547,-60.29721153,64.15546220

>  <CHROM.1>  (9) 
-71.45676261,-55.64290513,127.27483225,-52.74769370,78.72339344,-67.05004659
-62.58430311,65.97901876,-3.93612797,12.13859823,-18.05982551,-0.18186419
-0.14814100,-3.01054631

>  <Name>  (9) 
denovo_401

>  <RI>  (9) 
-5.35378e+08

>  <Rbt.Current_Directory>  (9) 
/tmp/claude-0/-home-user-Rare-cancers/1af35c7f-7dc4-53ce-91d2-1631a2a10a85/scratchpad/smwork/cross/dock_8XTT-model20

>  <Rbt.Executable>  (9) 
rbdock - v25.07-alpha

>  <Rbt.Library>  (9) 
libRbt.so (25.07, Buildalpha)

>  <Rbt.Parameter_File>  (9) 
/tmp/claude-0/-home-user-Rare-cancers/1af35c7f-7dc4-53ce-91d2-1631a2a10a85/scratchpad/rdroot/share/rDock/data/scripts/dock.prm

>  <Rbt.Receptor>  (9) 
rec.prm

>  <SCORE>  (9) 
-10.3242

>  <SCORE.INTER>  (9) 
-5.25649

>  <SCORE.INTER.CONST>  (9) 
1

>  <SCORE.INTER.POLAR>  (9) 
0

>  <SCORE.INTER.REPUL>  (9) 
0

>  <SCORE.INTER.ROT>  (9) 
7

>  <SCORE.INTER.VDW>  (9) 
-17.6565

>  <SCORE.INTER.norm>  (9) 
-0.238931

>  <SCORE.INTRA>  (9) 
2.05912

>  <SCORE.INTRA.DIHEDRAL>  (9) 
0.210659

>  <SCORE.INTRA.DIHEDRAL.0>  (9) 
3.78927

>  <SCORE.INTRA.POLAR>  (9) 
0

>  <SCORE.INTRA.POLAR.0>  (9) 
0

>  <SCORE.INTRA.REPUL>  (9) 
0

>  <SCORE.INTRA.REPUL.0>  (9) 
0

>  <SCORE.INTRA.VDW>  (9) 
1.95379

>  <SCORE.INTRA.VDW.0>  (9) 
1.02728

>  <SCORE.INTRA.norm>  (9) 
0.0935963

>  <SCORE.RESTR>  (9) 
0.00996127

>  <SCORE.RESTR.CAVITY>  (9) 
0.00996127

>  <SCORE.RESTR.norm>  (9) 
0.000452785

>  <SCORE.SYSTEM>  (9) 
-7.13677

>  <SCORE.SYSTEM.CONST>  (9) 
0

>  <SCORE.SYSTEM.DIHEDRAL>  (9) 
4.71154

>  <SCORE.SYSTEM.POLAR>  (9) 
-2.15019

>  <SCORE.SYSTEM.REPUL>  (9) 
0.0347114

>  <SCORE.SYSTEM.VDW>  (9) 
-2.35543

>  <SCORE.SYSTEM.norm>  (9) 
-0.324398

>  <SCORE.heavy>  (9) 
22

>  <SCORE.norm>  (9) 
-0.469281

$$$$
denovo_401
     RDKit          3D

 22 23  0  0  0  0  0  0  0  0999 V2000
   -0.0242   11.7053  -20.7358 C   0  0  0  0  0  0  0  0  0  0  0  0
   -0.9045   12.5210  -19.9743 O   0  0  0  0  0  0  0  0  0  0  0  0
   -1.6159   11.7598  -18.9957 C   0  0  0  0  0  0  0  0  0  0  0  0
   -2.4360   12.6968  -18.0823 C   0  0  2  0  0  0  0  0  0  0  0  0
   -1.4892   13.5156  -17.2115 C   0  0  0  0  0  0  0  0  0  0  0  0
   -1.6086   14.9133  -17.1786 C   0  0  0  0  0  0  0  0  0  0  0  0
   -0.7507   15.6824  -16.3905 C   0  0  0  0  0  0  0  0  0  0  0  0
    0.2373   15.0655  -15.6268 C   0  0  0  0  0  0  0  0  0  0  0  0
    0.3687   13.6790  -15.6503 C   0  0  0  0  0  0  0  0  0  0  0  0
   -0.4879   12.9077  -16.4379 C   0  0  0  0  0  0  0  0  0  0  0  0
   -3.4860   11.9376  -17.2315 C   0  0  2  0  0  0  0  0  0  0  0  0
   -3.1246   10.4816  -16.9195 C   0  0  0  0  0  0  0  0  0  0  0  0
   -4.4525    9.7479  -16.7071 C   0  0  0  0  0  0  0  0  0  0  0  0
   -5.5637   10.7428  -17.0528 C   0  0  2  0  0  0  0  0  0  0  0  0
   -6.7926   10.1651  -17.7759 C   0  0  0  0  0  0  0  0  0  0  0  0
   -7.9701   11.1353  -18.1343 C   0  0  0  0  0  0  0  0  0  0  0  0
   -7.5994   11.9625  -19.3821 C   0  0  0  0  0  0  0  0  0  0  0  0
   -9.1753   10.2344  -18.5061 C   0  0  0  0  0  0  0  0  0  0  0  0
   -8.3534   12.0780  -16.9502 C   0  0  1  0  0  0  0  0  0  0  0  0
   -9.5586   12.9851  -17.2003 C   0  0  0  0  0  0  0  0  0  0  0  0
   -8.6591   11.3252  -15.7751 O   0  0  0  0  0  0  0  0  0  0  0  0
   -4.8463   11.7853  -17.9203 C   0  0  0  0  0  0  0  0  0  0  0  0
  1  2  1  0
  2  3  1  0
  4  3  1  1
  4  5  1  0
  5  6  2  0
  6  7  1  0
  7  8  2  0
  8  9  1  0
  9 10  2  0
  4 11  1  0
 11 12  1  6
 12 13  1  0
 13 14  1  0
 14 15  1  6
 15 16  1  0
 16 17  1  0
 16 18  1  0
 16 19  1  0
 19 20  1  6
 19 21  1  0
 14 22  1  0
 10  5  1  0
 22 11  1  0
M  END
>  <CHROM.0>  (10) 
-163.98218890,63.42128147,169.13534362,179.37091706,-77.26691270,-74.90638706
175.92436725,-177.81449412,68.69662431,-60.29357076,-57.30915415

>  <CHROM.1>  (10) 
173.45984529,-68.81468500,127.46456618,27.52788998,179.08409288,77.94781525
-176.00247803,172.47954745,-4.11012820,12.18368245,-17.57518286,-0.18433261
-0.21350959,-2.27183593

>  <Name>  (10) 
denovo_401

>  <RI>  (10) 
-5.35378e+08

>  <Rbt.Current_Directory>  (10) 
/tmp/claude-0/-home-user-Rare-cancers/1af35c7f-7dc4-53ce-91d2-1631a2a10a85/scratchpad/smwork/cross/dock_8XTT-model20

>  <Rbt.Executable>  (10) 
rbdock - v25.07-alpha

>  <Rbt.Library>  (10) 
libRbt.so (25.07, Buildalpha)

>  <Rbt.Parameter_File>  (10) 
/tmp/claude-0/-home-user-Rare-cancers/1af35c7f-7dc4-53ce-91d2-1631a2a10a85/scratchpad/rdroot/share/rDock/data/scripts/dock.prm

>  <Rbt.Receptor>  (10) 
rec.prm

>  <SCORE>  (10) 
-9.9224

>  <SCORE.INTER>  (10) 
-7.01651

>  <SCORE.INTER.CONST>  (10) 
1

>  <SCORE.INTER.POLAR>  (10) 
0

>  <SCORE.INTER.REPUL>  (10) 
0

>  <SCORE.INTER.ROT>  (10) 
7

>  <SCORE.INTER.VDW>  (10) 
-19.4165

>  <SCORE.INTER.norm>  (10) 
-0.318932

>  <SCORE.INTRA>  (10) 
3.69797

>  <SCORE.INTRA.DIHEDRAL>  (10) 
2.29153

>  <SCORE.INTRA.DIHEDRAL.0>  (10) 
3.78927

>  <SCORE.INTRA.POLAR>  (10) 
0

>  <SCORE.INTRA.POLAR.0>  (10) 
0

>  <SCORE.INTRA.REPUL>  (10) 
0

>  <SCORE.INTRA.REPUL.0>  (10) 
0

>  <SCORE.INTRA.VDW>  (10) 
2.5522

>  <SCORE.INTRA.VDW.0>  (10) 
1.02728

>  <SCORE.INTRA.norm>  (10) 
0.16809

>  <SCORE.RESTR>  (10) 
0

>  <SCORE.RESTR.CAVITY>  (10) 
0

>  <SCORE.RESTR.norm>  (10) 
0

>  <SCORE.SYSTEM>  (10) 
-6.60385

>  <SCORE.SYSTEM.CONST>  (10) 
0

>  <SCORE.SYSTEM.DIHEDRAL>  (10) 
3.85462

>  <SCORE.SYSTEM.POLAR>  (10) 
-1.21193

>  <SCORE.SYSTEM.REPUL>  (10) 
0.0457444

>  <SCORE.SYSTEM.VDW>  (10) 
-4.63932

>  <SCORE.SYSTEM.norm>  (10) 
-0.300175

>  <SCORE.heavy>  (10) 
22

>  <SCORE.norm>  (10) 
-0.451018

$$$$
denovo_401
     RDKit          3D

 22 23  0  0  0  0  0  0  0  0999 V2000
   -1.5551   10.5295  -21.0724 C   0  0  0  0  0  0  0  0  0  0  0  0
   -1.5812   10.1144  -19.7132 O   0  0  0  0  0  0  0  0  0  0  0  0
   -2.8826   10.2627  -19.1408 C   0  0  0  0  0  0  0  0  0  0  0  0
   -3.2085   11.7581  -18.9347 C   0  0  2  0  0  0  0  0  0  0  0  0
   -2.0757   12.4242  -18.1613 C   0  0  0  0  0  0  0  0  0  0  0  0
   -1.6626   13.7189  -18.5105 C   0  0  0  0  0  0  0  0  0  0  0  0
   -0.6259   14.3463  -17.8176 C   0  0  0  0  0  0  0  0  0  0  0  0
    0.0116   13.6883  -16.7685 C   0  0  0  0  0  0  0  0  0  0  0  0
   -0.3866   12.4022  -16.4113 C   0  0  0  0  0  0  0  0  0  0  0  0
   -1.4230   11.7725  -17.1030 C   0  0  0  0  0  0  0  0  0  0  0  0
   -4.5809   11.9845  -18.2507 C   0  0  2  0  0  0  0  0  0  0  0  0
   -4.7263   11.3260  -16.8749 C   0  0  0  0  0  0  0  0  0  0  0  0
   -6.2241   11.0714  -16.6792 C   0  0  0  0  0  0  0  0  0  0  0  0
   -6.9075   11.4363  -17.9997 C   0  0  2  0  0  0  0  0  0  0  0  0
   -8.0809   10.5385  -18.4288 C   0  0  0  0  0  0  0  0  0  0  0  0
   -9.4882   10.7959  -17.7890 C   0  0  0  0  0  0  0  0  0  0  0  0
  -10.4494    9.6523  -18.1723 C   0  0  0  0  0  0  0  0  0  0  0  0
   -9.2817   10.7444  -16.2537 C   0  0  0  0  0  0  0  0  0  0  0  0
  -10.0920   12.1757  -18.2006 C   0  0  1  0  0  0  0  0  0  0  0  0
   -9.2715   13.3980  -17.7873 C   0  0  0  0  0  0  0  0  0  0  0  0
  -10.2498   12.2630  -19.6178 O   0  0  0  0  0  0  0  0  0  0  0  0
   -5.7610   11.3785  -19.0178 C   0  0  0  0  0  0  0  0  0  0  0  0
  1  2  1  0
  2  3  1  0
  4  3  1  1
  4  5  1  0
  5  6  2  0
  6  7  1  0
  7  8  2  0
  8  9  1  0
  9 10  2  0
  4 11  1  0
 11 12  1  1
 12 13  1  0
 13 14  1  0
 14 15  1  6
 15 16  1  0
 16 17  1  0
 16 18  1  0
 16 19  1  0
 19 20  1  6
 19 21  1  0
 14 22  1  0
 10  5  1  0
 22 11  1  0
M  END
>  <CHROM.0>  (11) 
-158.40252491,-177.55205430,173.63513893,73.92494009,-176.36512009,-75.88831164
54.91033264,-177.52763871,67.18287318,-58.70872194,62.61447231

>  <CHROM.1>  (11) 
-71.32141172,-52.08831903,140.60730865,58.48289889,81.10002152,-170.60347829
-60.97261641,-56.42770676,-5.12753404,11.67884707,-18.16414424,-0.06742343
-0.09305331,-2.33682185

>  <Name>  (11) 
denovo_401

>  <RI>  (11) 
-5.35378e+08

>  <Rbt.Current_Directory>  (11) 
/tmp/claude-0/-home-user-Rare-cancers/1af35c7f-7dc4-53ce-91d2-1631a2a10a85/scratchpad/smwork/cross/dock_8XTT-model20

>  <Rbt.Executable>  (11) 
rbdock - v25.07-alpha

>  <Rbt.Library>  (11) 
libRbt.so (25.07, Buildalpha)

>  <Rbt.Parameter_File>  (11) 
/tmp/claude-0/-home-user-Rare-cancers/1af35c7f-7dc4-53ce-91d2-1631a2a10a85/scratchpad/rdroot/share/rDock/data/scripts/dock.prm

>  <Rbt.Receptor>  (11) 
rec.prm

>  <SCORE>  (11) 
-9.5798

>  <SCORE.INTER>  (11) 
-5.1162

>  <SCORE.INTER.CONST>  (11) 
1

>  <SCORE.INTER.POLAR>  (11) 
0

>  <SCORE.INTER.REPUL>  (11) 
0

>  <SCORE.INTER.ROT>  (11) 
7

>  <SCORE.INTER.VDW>  (11) 
-17.5162

>  <SCORE.INTER.norm>  (11) 
-0.232555

>  <SCORE.INTRA>  (11) 
3.60516

>  <SCORE.INTRA.DIHEDRAL>  (11) 
0.131355

>  <SCORE.INTRA.DIHEDRAL.0>  (11) 
3.78927

>  <SCORE.INTRA.POLAR>  (11) 
0

>  <SCORE.INTRA.POLAR.0>  (11) 
0

>  <SCORE.INTRA.REPUL>  (11) 
0

>  <SCORE.INTRA.REPUL.0>  (11) 
0

>  <SCORE.INTRA.VDW>  (11) 
3.53948

>  <SCORE.INTRA.VDW.0>  (11) 
1.02728

>  <SCORE.INTRA.norm>  (11) 
0.163871

>  <SCORE.RESTR>  (11) 
0

>  <SCORE.RESTR.CAVITY>  (11) 
0

>  <SCORE.RESTR.norm>  (11) 
0

>  <SCORE.SYSTEM>  (11) 
-8.0688

>  <SCORE.SYSTEM.CONST>  (11) 
0

>  <SCORE.SYSTEM.DIHEDRAL>  (11) 
3.41659

>  <SCORE.SYSTEM.POLAR>  (11) 
-1.79808

>  <SCORE.SYSTEM.REPUL>  (11) 
0.126782

>  <SCORE.SYSTEM.VDW>  (11) 
-4.29753

>  <SCORE.SYSTEM.norm>  (11) 
-0.366763

>  <SCORE.heavy>  (11) 
22

>  <SCORE.norm>  (11) 
-0.435447

$$$$
denovo_401
     RDKit          3D

 22 23  0  0  0  0  0  0  0  0999 V2000
   -0.4757   11.8337  -21.2515 C   0  0  0  0  0  0  0  0  0  0  0  0
   -1.2385   12.6408  -20.3642 O   0  0  0  0  0  0  0  0  0  0  0  0
   -1.9286   11.8509  -19.3932 C   0  0  0  0  0  0  0  0  0  0  0  0
   -2.6664   12.7630  -18.3889 C   0  0  2  0  0  0  0  0  0  0  0  0
   -1.6507   13.6059  -17.6255 C   0  0  0  0  0  0  0  0  0  0  0  0
   -0.6956   12.9766  -16.8127 C   0  0  0  0  0  0  0  0  0  0  0  0
    0.2419   13.7290  -16.1031 C   0  0  0  0  0  0  0  0  0  0  0  0
    0.2364   15.1187  -16.1954 C   0  0  0  0  0  0  0  0  0  0  0  0
   -0.7066   15.7577  -16.9971 C   0  0  0  0  0  0  0  0  0  0  0  0
   -1.6453   15.0073  -17.7076 C   0  0  0  0  0  0  0  0  0  0  0  0
   -3.5933   11.9733  -17.4297 C   0  0  2  0  0  0  0  0  0  0  0  0
   -3.0037   10.6585  -16.9089 C   0  0  0  0  0  0  0  0  0  0  0  0
   -4.1968    9.7545  -16.5834 C   0  0  0  0  0  0  0  0  0  0  0  0
   -5.4496   10.4907  -17.0655 C   0  0  2  0  0  0  0  0  0  0  0  0
   -6.5531    9.6186  -17.6889 C   0  0  0  0  0  0  0  0  0  0  0  0
   -7.9705   10.2518  -17.9036 C   0  0  0  0  0  0  0  0  0  0  0  0
   -7.8703   11.4211  -18.9044 C   0  0  0  0  0  0  0  0  0  0  0  0
   -8.8438    9.1482  -18.5530 C   0  0  0  0  0  0  0  0  0  0  0  0
   -8.6225   10.7321  -16.5687 C   0  0  1  0  0  0  0  0  0  0  0  0
   -7.8979   11.8784  -15.8623 C   0  0  0  0  0  0  0  0  0  0  0  0
   -9.9612   11.1813  -16.7856 O   0  0  0  0  0  0  0  0  0  0  0  0
   -4.8969   11.4994  -18.0811 C   0  0  0  0  0  0  0  0  0  0  0  0
  1  2  1  0
  2  3  1  0
  4  3  1  6
  4  5  1  0
  5  6  2  0
  6  7  1  0
  7  8  2  0
  8  9  1  0
  9 10  2  0
  4 11  1  0
 11 12  1  6
 12 13  1  0
 13 14  1  0
 14 15  1  6
 15 16  1  0
 16 17  1  0
 16 18  1  0
 16 19  1  0
 19 20  1  6
 19 21  1  0
 14 22  1  0
 10  5  1  0
 22 11  1  0
M  END
>  <CHROM.0>  (12) 
-167.05030535,-173.09626755,171.70129386,-64.70118710,-80.32466425,-77.02446895
177.07540442,176.88711572,66.80090416,-62.53107403,-58.56904120

>  <CHROM.1>  (12) 
176.09432146,-62.92730914,-62.43764295,41.11401509,166.50820738,63.22097795
64.92450373,171.65998709,-4.16850329,11.94539538,-17.72664372,-0.17097020
-0.36731703,-2.18142875

>  <Name>  (12) 
denovo_401

>  <RI>  (12) 
-5.35378e+08

>  <Rbt.Current_Directory>  (12) 
/tmp/claude-0/-home-user-Rare-cancers/1af35c7f-7dc4-53ce-91d2-1631a2a10a85/scratchpad/smwork/cross/dock_8XTT-model20

>  <Rbt.Executable>  (12) 
rbdock - v25.07-alpha

>  <Rbt.Library>  (12) 
libRbt.so (25.07, Buildalpha)

>  <Rbt.Parameter_File>  (12) 
/tmp/claude-0/-home-user-Rare-cancers/1af35c7f-7dc4-53ce-91d2-1631a2a10a85/scratchpad/rdroot/share/rDock/data/scripts/dock.prm

>  <Rbt.Receptor>  (12) 
rec.prm

>  <SCORE>  (12) 
-9.4539

>  <SCORE.INTER>  (12) 
-6.94897

>  <SCORE.INTER.CONST>  (12) 
1

>  <SCORE.INTER.POLAR>  (12) 
0

>  <SCORE.INTER.REPUL>  (12) 
0

>  <SCORE.INTER.ROT>  (12) 
7

>  <SCORE.INTER.VDW>  (12) 
-19.349

>  <SCORE.INTER.norm>  (12) 
-0.315862

>  <SCORE.INTRA>  (12) 
2.1612

>  <SCORE.INTRA.DIHEDRAL>  (12) 
-0.254491

>  <SCORE.INTRA.DIHEDRAL.0>  (12) 
3.78927

>  <SCORE.INTRA.POLAR>  (12) 
0

>  <SCORE.INTRA.POLAR.0>  (12) 
0

>  <SCORE.INTRA.REPUL>  (12) 
0

>  <SCORE.INTRA.REPUL.0>  (12) 
0

>  <SCORE.INTRA.VDW>  (12) 
2.28845

>  <SCORE.INTRA.VDW.0>  (12) 
1.02728

>  <SCORE.INTRA.norm>  (12) 
0.0982364

>  <SCORE.RESTR>  (12) 
0

>  <SCORE.RESTR.CAVITY>  (12) 
0

>  <SCORE.RESTR.norm>  (12) 
0

>  <SCORE.SYSTEM>  (12) 
-4.66612

>  <SCORE.SYSTEM.CONST>  (12) 
0

>  <SCORE.SYSTEM.DIHEDRAL>  (12) 
4.33472

>  <SCORE.SYSTEM.POLAR>  (12) 
-1.25353

>  <SCORE.SYSTEM.REPUL>  (12) 
0.336027

>  <SCORE.SYSTEM.VDW>  (12) 
-4.25163

>  <SCORE.SYSTEM.norm>  (12) 
-0.212097

>  <SCORE.heavy>  (12) 
22

>  <SCORE.norm>  (12) 
-0.429722

$$$$
denovo_401
     RDKit          3D

 22 23  0  0  0  0  0  0  0  0999 V2000
  -10.2137    8.5949  -19.0699 C   0  0  0  0  0  0  0  0  0  0  0  0
   -9.5860    9.2276  -17.9627 O   0  0  0  0  0  0  0  0  0  0  0  0
   -8.1625    9.2280  -18.0921 C   0  0  0  0  0  0  0  0  0  0  0  0
   -7.5289   10.1452  -17.0232 C   0  0  2  0  0  0  0  0  0  0  0  0
   -8.2156   11.5063  -17.0487 C   0  0  0  0  0  0  0  0  0  0  0  0
   -8.5865   12.1206  -15.8429 C   0  0  0  0  0  0  0  0  0  0  0  0
   -9.2186   13.3652  -15.8432 C   0  0  0  0  0  0  0  0  0  0  0  0
   -9.4889   14.0110  -17.0473 C   0  0  0  0  0  0  0  0  0  0  0  0
   -9.1278   13.4129  -18.2523 C   0  0  0  0  0  0  0  0  0  0  0  0
   -8.4959   12.1681  -18.2546 C   0  0  0  0  0  0  0  0  0  0  0  0
   -5.9921   10.2748  -17.1784 C   0  0  2  0  0  0  0  0  0  0  0  0
   -5.3339   11.2703  -16.2175 C   0  0  0  0  0  0  0  0  0  0  0  0
   -4.0578   11.7550  -16.9125 C   0  0  0  0  0  0  0  0  0  0  0  0
   -4.0738   11.1610  -18.3235 C   0  0  2  0  0  0  0  0  0  0  0  0
   -3.5388   12.0647  -19.4478 C   0  0  0  0  0  0  0  0  0  0  0  0
   -2.0439   11.8996  -19.8882 C   0  0  0  0  0  0  0  0  0  0  0  0
   -1.7766   10.4313  -20.2772 C   0  0  0  0  0  0  0  0  0  0  0  0
   -1.8701   12.7647  -21.1625 C   0  0  0  0  0  0  0  0  0  0  0  0
   -1.0385   12.3629  -18.7871 C   0  0  1  0  0  0  0  0  0  0  0  0
   -1.0525   11.5377  -17.5000 C   0  0  0  0  0  0  0  0  0  0  0  0
    0.3050   12.3223  -19.2712 O   0  0  0  0  0  0  0  0  0  0  0  0
   -5.5522   10.8146  -18.5434 C   0  0  0  0  0  0  0  0  0  0  0  0
  1  2  1  0
  2  3  1  0
  4  3  1  6
  4  5  1  0
  5  6  2  0
  6  7  1  0
  7  8  2  0
  8  9  1  0
  9 10  2  0
  4 11  1  0
 11 12  1  1
 12 13  1  0
 13 14  1  0
 14 15  1  6
 15 16  1  0
 16 17  1  0
 16 18  1  0
 16 19  1  0
 19 20  1  1
 19 21  1  0
 14 22  1  0
 10  5  1  0
 22 11  1  0
M  END
>  <CHROM.0>  (13) 
-161.12335329,60.20578987,-61.54475449,179.93616261,-176.30784628,-77.61998867
56.41371057,-176.96568318,-179.74352190,-61.31756279,62.81852014

>  <CHROM.1>  (13) 
169.35289882,-50.52179267,135.19180348,174.90631803,95.80927712,55.06055811
64.96533470,170.38049263,-5.57081065,11.43910046,-18.13142106,3.11269562
0.25056342,0.48823940

>  <Name>  (13) 
denovo_401

>  <RI>  (13) 
-5.35378e+08

>  <Rbt.Current_Directory>  (13) 
/tmp/claude-0/-home-user-Rare-cancers/1af35c7f-7dc4-53ce-91d2-1631a2a10a85/scratchpad/smwork/cross/dock_8XTT-model20

>  <Rbt.Executable>  (13) 
rbdock - v25.07-alpha

>  <Rbt.Library>  (13) 
libRbt.so (25.07, Buildalpha)

>  <Rbt.Parameter_File>  (13) 
/tmp/claude-0/-home-user-Rare-cancers/1af35c7f-7dc4-53ce-91d2-1631a2a10a85/scratchpad/rdroot/share/rDock/data/scripts/dock.prm

>  <Rbt.Receptor>  (13) 
rec.prm

>  <SCORE>  (13) 
-9.4036

>  <SCORE.INTER>  (13) 
-4.70373

>  <SCORE.INTER.CONST>  (13) 
1

>  <SCORE.INTER.POLAR>  (13) 
0

>  <SCORE.INTER.REPUL>  (13) 
0

>  <SCORE.INTER.ROT>  (13) 
7

>  <SCORE.INTER.VDW>  (13) 
-17.1037

>  <SCORE.INTER.norm>  (13) 
-0.213806

>  <SCORE.INTRA>  (13) 
3.23375

>  <SCORE.INTRA.DIHEDRAL>  (13) 
3.0692

>  <SCORE.INTRA.DIHEDRAL.0>  (13) 
3.78927

>  <SCORE.INTRA.POLAR>  (13) 
0

>  <SCORE.INTRA.POLAR.0>  (13) 
0

>  <SCORE.INTRA.REPUL>  (13) 
0

>  <SCORE.INTRA.REPUL.0>  (13) 
0

>  <SCORE.INTRA.VDW>  (13) 
1.69915

>  <SCORE.INTRA.VDW.0>  (13) 
1.02728

>  <SCORE.INTRA.norm>  (13) 
0.146989

>  <SCORE.RESTR>  (13) 
0.0202791

>  <SCORE.RESTR.CAVITY>  (13) 
0.0202791

>  <SCORE.RESTR.norm>  (13) 
0.000921778

>  <SCORE.SYSTEM>  (13) 
-7.95391

>  <SCORE.SYSTEM.CONST>  (13) 
0

>  <SCORE.SYSTEM.DIHEDRAL>  (13) 
2.14369

>  <SCORE.SYSTEM.POLAR>  (13) 
-1.41023

>  <SCORE.SYSTEM.REPUL>  (13) 
0.0721281

>  <SCORE.SYSTEM.VDW>  (13) 
-4.59162

>  <SCORE.SYSTEM.norm>  (13) 
-0.361541

>  <SCORE.heavy>  (13) 
22

>  <SCORE.norm>  (13) 
-0.427437

$$$$
denovo_401
     RDKit          3D

 22 23  0  0  0  0  0  0  0  0999 V2000
    1.1451   12.1151  -18.9262 C   0  0  0  0  0  0  0  0  0  0  0  0
   -0.2284   12.4013  -19.1541 O   0  0  0  0  0  0  0  0  0  0  0  0
   -1.0367   12.0372  -18.0328 C   0  0  0  0  0  0  0  0  0  0  0  0
   -2.5271   12.2993  -18.3407 C   0  0  2  0  0  0  0  0  0  0  0  0
   -2.7903   13.8013  -18.3414 C   0  0  0  0  0  0  0  0  0  0  0  0
   -3.3697   14.4051  -19.4676 C   0  0  0  0  0  0  0  0  0  0  0  0
   -3.6169   15.7788  -19.4907 C   0  0  0  0  0  0  0  0  0  0  0  0
   -3.2876   16.5662  -18.3900 C   0  0  0  0  0  0  0  0  0  0  0  0
   -2.7105   15.9811  -17.2653 C   0  0  0  0  0  0  0  0  0  0  0  0
   -2.4621   14.6076  -17.2401 C   0  0  0  0  0  0  0  0  0  0  0  0
   -3.4802   11.5502  -17.3748 C   0  0  2  0  0  0  0  0  0  0  0  0
   -3.1905   10.0533  -17.2234 C   0  0  0  0  0  0  0  0  0  0  0  0
   -4.5198    9.3978  -16.8363 C   0  0  0  0  0  0  0  0  0  0  0  0
   -5.5894   10.4899  -16.9232 C   0  0  2  0  0  0  0  0  0  0  0  0
   -6.9629   10.0550  -17.4629 C   0  0  0  0  0  0  0  0  0  0  0  0
   -8.1310   11.0997  -17.4547 C   0  0  0  0  0  0  0  0  0  0  0  0
   -9.4446   10.4126  -17.8804 C   0  0  0  0  0  0  0  0  0  0  0  0
   -8.2928   11.5566  -15.9825 C   0  0  0  0  0  0  0  0  0  0  0  0
   -7.8408   12.3326  -18.3676 C   0  0  1  0  0  0  0  0  0  0  0  0
   -7.5041   12.0043  -19.8225 C   0  0  0  0  0  0  0  0  0  0  0  0
   -8.9638   13.2148  -18.4084 O   0  0  0  0  0  0  0  0  0  0  0  0
   -4.9431   11.5448  -17.8309 C   0  0  0  0  0  0  0  0  0  0  0  0
  1  2  1  0
  2  3  1  0
  4  3  1  1
  4  5  1  0
  5  6  2  0
  6  7  1  0
  7  8  2  0
  8  9  1  0
  9 10  2  0
  4 11  1  0
 11 12  1  6
 12 13  1  0
 13 14  1  0
 14 15  1  6
 15 16  1  0
 16 17  1  0
 16 18  1  0
 16 19  1  0
 19 20  1  6
 19 21  1  0
 14 22  1  0
 10  5  1  0
 22 11  1  0
M  END
>  <CHROM.0>  (14) 
-160.91255038,55.80275301,173.63317055,-62.03692638,-76.53725374,-77.71062134
58.14441239,-55.82920375,-72.52138602,178.83081958,178.88555276

>  <CHROM.1>  (14) 
-177.32326039,-72.28273559,124.71071730,-50.79114253,174.67442702,-173.48550912
55.14388031,65.90071574,-4.57689986,12.39751518,-18.01903161,-0.32653432
-0.03879876,2.91793779

>  <Name>  (14) 
denovo_401

>  <RI>  (14) 
-5.35378e+08

>  <Rbt.Current_Directory>  (14) 
/tmp/claude-0/-home-user-Rare-cancers/1af35c7f-7dc4-53ce-91d2-1631a2a10a85/scratchpad/smwork/cross/dock_8XTT-model20

>  <Rbt.Executable>  (14) 
rbdock - v25.07-alpha

>  <Rbt.Library>  (14) 
libRbt.so (25.07, Buildalpha)

>  <Rbt.Parameter_File>  (14) 
/tmp/claude-0/-home-user-Rare-cancers/1af35c7f-7dc4-53ce-91d2-1631a2a10a85/scratchpad/rdroot/share/rDock/data/scripts/dock.prm

>  <Rbt.Receptor>  (14) 
rec.prm

>  <SCORE>  (14) 
-9.1232

>  <SCORE.INTER>  (14) 
-5.61055

>  <SCORE.INTER.CONST>  (14) 
1

>  <SCORE.INTER.POLAR>  (14) 
0

>  <SCORE.INTER.REPUL>  (14) 
0.00275638

>  <SCORE.INTER.ROT>  (14) 
7

>  <SCORE.INTER.VDW>  (14) 
-18.0243

>  <SCORE.INTER.norm>  (14) 
-0.255025

>  <SCORE.INTRA>  (14) 
-0.375842

>  <SCORE.INTRA.DIHEDRAL>  (14) 
-1.34662

>  <SCORE.INTRA.DIHEDRAL.0>  (14) 
3.78927

>  <SCORE.INTRA.POLAR>  (14) 
0

>  <SCORE.INTRA.POLAR.0>  (14) 
0

>  <SCORE.INTRA.REPUL>  (14) 
0

>  <SCORE.INTRA.REPUL.0>  (14) 
0

>  <SCORE.INTRA.VDW>  (14) 
0.297466

>  <SCORE.INTRA.VDW.0>  (14) 
1.02728

>  <SCORE.INTRA.norm>  (14) 
-0.0170837

>  <SCORE.RESTR>  (14) 
0.239389

>  <SCORE.RESTR.CAVITY>  (14) 
0.239389

>  <SCORE.RESTR.norm>  (14) 
0.0108813

>  <SCORE.SYSTEM>  (14) 
-3.37615

>  <SCORE.SYSTEM.CONST>  (14) 
0

>  <SCORE.SYSTEM.DIHEDRAL>  (14) 
4.34745

>  <SCORE.SYSTEM.POLAR>  (14) 
-1.28144

>  <SCORE.SYSTEM.REPUL>  (14) 
0.308908

>  <SCORE.SYSTEM.VDW>  (14) 
-2.73751

>  <SCORE.SYSTEM.norm>  (14) 
-0.153462

>  <SCORE.heavy>  (14) 
22

>  <SCORE.norm>  (14) 
-0.414689

$$$$
denovo_401
     RDKit          3D

 22 23  0  0  0  0  0  0  0  0999 V2000
   -8.5274    8.0288  -19.5850 C   0  0  0  0  0  0  0  0  0  0  0  0
   -7.9188    8.8487  -18.5961 O   0  0  0  0  0  0  0  0  0  0  0  0
   -6.7661    9.5231  -19.1057 C   0  0  0  0  0  0  0  0  0  0  0  0
   -6.1717   10.4550  -18.0271 C   0  0  2  0  0  0  0  0  0  0  0  0
   -7.2467   11.4203  -17.5398 C   0  0  0  0  0  0  0  0  0  0  0  0
   -7.4353   11.6132  -16.1629 C   0  0  0  0  0  0  0  0  0  0  0  0
   -8.4154   12.4901  -15.6948 C   0  0  0  0  0  0  0  0  0  0  0  0
   -9.2197   13.1840  -16.5957 C   0  0  0  0  0  0  0  0  0  0  0  0
   -9.0450   13.0017  -17.9656 C   0  0  0  0  0  0  0  0  0  0  0  0
   -8.0657   12.1250  -18.4361 C   0  0  0  0  0  0  0  0  0  0  0  0
   -4.9052   11.2047  -18.5136 C   0  0  2  0  0  0  0  0  0  0  0  0
   -3.7886   10.2981  -19.0417 C   0  0  0  0  0  0  0  0  0  0  0  0
   -2.4798   11.0664  -18.8330 C   0  0  0  0  0  0  0  0  0  0  0  0
   -2.8342   12.3316  -18.0470 C   0  0  2  0  0  0  0  0  0  0  0  0
   -1.8141   12.7815  -16.9869 C   0  0  0  0  0  0  0  0  0  0  0  0
   -0.8387   13.9554  -17.3430 C   0  0  0  0  0  0  0  0  0  0  0  0
    0.2559   13.4472  -18.3035 C   0  0  0  0  0  0  0  0  0  0  0  0
   -1.6857   15.0056  -18.1059 C   0  0  0  0  0  0  0  0  0  0  0  0
   -0.1943   14.6057  -16.0783 C   0  0  1  0  0  0  0  0  0  0  0  0
    0.4488   13.6269  -15.0953 C   0  0  0  0  0  0  0  0  0  0  0  0
    0.8297   15.5321  -16.4447 O   0  0  0  0  0  0  0  0  0  0  0  0
   -4.1846   11.9826  -17.4074 C   0  0  0  0  0  0  0  0  0  0  0  0
  1  2  1  0
  2  3  1  0
  4  3  1  6
  4  5  1  0
  5  6  2  0
  6  7  1  0
  7  8  2  0
  8  9  1  0
  9 10  2  0
  4 11  1  0
 11 12  1  1
 12 13  1  0
 13 14  1  0
 14 15  1  1
 15 16  1  0
 16 17  1  0
 16 18  1  0
 16 19  1  0
 19 20  1  1
 19 21  1  0
 14 22  1  0
 10  5  1  0
 22 11  1  0
M  END
>  <CHROM.0>  (15) 
-165.05524633,-58.33799044,172.76551680,-178.74110158,-174.32816130,51.64542714
-64.48131087,-59.00995051,69.82747113,-62.59639343,65.07027978

>  <CHROM.1>  (15) 
177.28131528,-55.62468448,132.31632575,-55.14336519,100.82443237,-74.98383281
50.70662988,82.41966305,-4.44322599,12.12131562,-17.64247910,-2.71354356
0.11845861,0.57567361

>  <Name>  (15) 
denovo_401

>  <RI>  (15) 
-5.35378e+08

>  <Rbt.Current_Directory>  (15) 
/tmp/claude-0/-home-user-Rare-cancers/1af35c7f-7dc4-53ce-91d2-1631a2a10a85/scratchpad/smwork/cross/dock_8XTT-model20

>  <Rbt.Executable>  (15) 
rbdock - v25.07-alpha

>  <Rbt.Library>  (15) 
libRbt.so (25.07, Buildalpha)

>  <Rbt.Parameter_File>  (15) 
/tmp/claude-0/-home-user-Rare-cancers/1af35c7f-7dc4-53ce-91d2-1631a2a10a85/scratchpad/rdroot/share/rDock/data/scripts/dock.prm

>  <Rbt.Receptor>  (15) 
rec.prm

>  <SCORE>  (15) 
-8.8936

>  <SCORE.INTER>  (15) 
-9.48736

>  <SCORE.INTER.CONST>  (15) 
1

>  <SCORE.INTER.POLAR>  (15) 
-1.55872

>  <SCORE.INTER.REPUL>  (15) 
0

>  <SCORE.INTER.ROT>  (15) 
7

>  <SCORE.INTER.VDW>  (15) 
-16.5877

>  <SCORE.INTER.norm>  (15) 
-0.431244

>  <SCORE.INTRA>  (15) 
3.9506

>  <SCORE.INTRA.DIHEDRAL>  (15) 
6.31226

>  <SCORE.INTRA.DIHEDRAL.0>  (15) 
3.78927

>  <SCORE.INTRA.POLAR>  (15) 
0

>  <SCORE.INTRA.POLAR.0>  (15) 
0

>  <SCORE.INTRA.REPUL>  (15) 
0

>  <SCORE.INTRA.REPUL.0>  (15) 
0

>  <SCORE.INTRA.VDW>  (15) 
0.794466

>  <SCORE.INTRA.VDW.0>  (15) 
1.02728

>  <SCORE.INTRA.norm>  (15) 
0.179573

>  <SCORE.RESTR>  (15) 
0.0552018

>  <SCORE.RESTR.CAVITY>  (15) 
0.0552018

>  <SCORE.RESTR.norm>  (15) 
0.00250917

>  <SCORE.SYSTEM>  (15) 
-3.41205

>  <SCORE.SYSTEM.CONST>  (15) 
0

>  <SCORE.SYSTEM.DIHEDRAL>  (15) 
1.77504

>  <SCORE.SYSTEM.POLAR>  (15) 
-0.630736

>  <SCORE.SYSTEM.REPUL>  (15) 
0.156287

>  <SCORE.SYSTEM.VDW>  (15) 
-2.93651

>  <SCORE.SYSTEM.norm>  (15) 
-0.155093

>  <SCORE.heavy>  (15) 
22

>  <SCORE.norm>  (15) 
-0.404255

$$$$
denovo_401
     RDKit          3D

 22 23  0  0  0  0  0  0  0  0999 V2000
   -0.8421   10.6558  -19.7565 C   0  0  0  0  0  0  0  0  0  0  0  0
   -0.8321   11.5029  -18.6152 O   0  0  0  0  0  0  0  0  0  0  0  0
   -1.9082   11.2008  -17.7240 C   0  0  0  0  0  0  0  0  0  0  0  0
   -3.2393   11.7403  -18.2914 C   0  0  2  0  0  0  0  0  0  0  0  0
   -3.1839   13.2626  -18.3595 C   0  0  0  0  0  0  0  0  0  0  0  0
   -2.7156   13.9913  -17.2556 C   0  0  0  0  0  0  0  0  0  0  0  0
   -2.6589   15.3855  -17.2954 C   0  0  0  0  0  0  0  0  0  0  0  0
   -3.0701   16.0689  -18.4372 C   0  0  0  0  0  0  0  0  0  0  0  0
   -3.5387   15.3591  -19.5404 C   0  0  0  0  0  0  0  0  0  0  0  0
   -3.5966   13.9648  -19.5028 C   0  0  0  0  0  0  0  0  0  0  0  0
   -4.4747   11.2461  -17.4962 C   0  0  2  0  0  0  0  0  0  0  0  0
   -4.5987    9.7227  -17.3888 C   0  0  0  0  0  0  0  0  0  0  0  0
   -6.0911    9.4270  -17.2100 C   0  0  0  0  0  0  0  0  0  0  0  0
   -6.8254   10.7604  -17.3746 C   0  0  2  0  0  0  0  0  0  0  0  0
   -8.1770   10.7062  -18.1075 C   0  0  0  0  0  0  0  0  0  0  0  0
   -9.3769   11.5242  -17.5183 C   0  0  0  0  0  0  0  0  0  0  0  0
  -10.6714   11.1655  -18.2762 C   0  0  0  0  0  0  0  0  0  0  0  0
   -9.5430   11.0531  -16.0510 C   0  0  0  0  0  0  0  0  0  0  0  0
   -9.1312   13.0656  -17.5596 C   0  0  1  0  0  0  0  0  0  0  0  0
   -8.9332   13.6590  -18.9548 C   0  0  0  0  0  0  0  0  0  0  0  0
  -10.2267   13.7742  -16.9776 O   0  0  0  0  0  0  0  0  0  0  0  0
   -5.8141   11.6283  -18.1350 C   0  0  0  0  0  0  0  0  0  0  0  0
  1  2  1  0
  2  3  1  0
  4  3  1  1
  4  5  1  0
  5  6  2  0
  6  7  1  0
  7  8  2  0
  8  9  1  0
  9 10  2  0
  4 11  1  0
 11 12  1  6
 12 13  1  0
 13 14  1  0
 14 15  1  6
 15 16  1  0
 16 17  1  0
 16 18  1  0
 16 19  1  0
 19 20  1  6
 19 21  1  0
 14 22  1  0
 10  5  1  0
 22 11  1  0
M  END
>  <CHROM.0>  (16) 
29.98306823,-175.35810773,173.84441231,-178.15378928,-79.89475397,49.42180003
-65.69606907,-177.46017408,-179.97443288,69.81899824,179.99455828

>  <CHROM.1>  (16) 
-75.34010196,-64.43203506,-46.77975068,-56.29593555,136.37548326,-171.62592319
61.02294168,158.55476489,-5.49356361,12.27826303,-17.98690380,-0.12869355
-0.12251385,3.03116330

>  <Name>  (16) 
denovo_401

>  <RI>  (16) 
-5.35378e+08

>  <Rbt.Current_Directory>  (16) 
/tmp/claude-0/-home-user-Rare-cancers/1af35c7f-7dc4-53ce-91d2-1631a2a10a85/scratchpad/smwork/cross/dock_8XTT-model20

>  <Rbt.Executable>  (16) 
rbdock - v25.07-alpha

>  <Rbt.Library>  (16) 
libRbt.so (25.07, Buildalpha)

>  <Rbt.Parameter_File>  (16) 
/tmp/claude-0/-home-user-Rare-cancers/1af35c7f-7dc4-53ce-91d2-1631a2a10a85/scratchpad/rdroot/share/rDock/data/scripts/dock.prm

>  <Rbt.Receptor>  (16) 
rec.prm

>  <SCORE>  (16) 
-8.7974

>  <SCORE.INTER>  (16) 
-8.92443

>  <SCORE.INTER.CONST>  (16) 
1

>  <SCORE.INTER.POLAR>  (16) 
-1.29361

>  <SCORE.INTER.REPUL>  (16) 
0

>  <SCORE.INTER.ROT>  (16) 
7

>  <SCORE.INTER.VDW>  (16) 
-16.9262

>  <SCORE.INTER.norm>  (16) 
-0.405656

>  <SCORE.INTRA>  (16) 
3.84982

>  <SCORE.INTRA.DIHEDRAL>  (16) 
5.93733

>  <SCORE.INTRA.DIHEDRAL.0>  (16) 
3.78927

>  <SCORE.INTRA.POLAR>  (16) 
0

>  <SCORE.INTRA.POLAR.0>  (16) 
0

>  <SCORE.INTRA.REPUL>  (16) 
0

>  <SCORE.INTRA.REPUL.0>  (16) 
0

>  <SCORE.INTRA.VDW>  (16) 
0.881156

>  <SCORE.INTRA.VDW.0>  (16) 
1.02728

>  <SCORE.INTRA.norm>  (16) 
0.174992

>  <SCORE.RESTR>  (16) 
0.0274157

>  <SCORE.RESTR.CAVITY>  (16) 
0.0274157

>  <SCORE.RESTR.norm>  (16) 
0.00124617

>  <SCORE.SYSTEM>  (16) 
-3.75017

>  <SCORE.SYSTEM.CONST>  (16) 
0

>  <SCORE.SYSTEM.DIHEDRAL>  (16) 
4.36213

>  <SCORE.SYSTEM.POLAR>  (16) 
-0.450452

>  <SCORE.SYSTEM.REPUL>  (16) 
0.0284695

>  <SCORE.SYSTEM.VDW>  (16) 
-4.54204

>  <SCORE.SYSTEM.norm>  (16) 
-0.170462

>  <SCORE.heavy>  (16) 
22

>  <SCORE.norm>  (16) 
-0.39988

$$$$
denovo_401
     RDKit          3D

 22 23  0  0  0  0  0  0  0  0999 V2000
   -5.3272    6.8292  -19.4374 C   0  0  0  0  0  0  0  0  0  0  0  0
   -6.4231    7.7064  -19.6611 O   0  0  0  0  0  0  0  0  0  0  0  0
   -6.0535    9.0734  -19.4661 C   0  0  0  0  0  0  0  0  0  0  0  0
   -6.0618    9.4198  -17.9611 C   0  0  2  0  0  0  0  0  0  0  0  0
   -7.4558    9.8838  -17.5532 C   0  0  0  0  0  0  0  0  0  0  0  0
   -7.5978   10.9517  -16.6543 C   0  0  0  0  0  0  0  0  0  0  0  0
   -8.8644   11.3910  -16.2653 C   0  0  0  0  0  0  0  0  0  0  0  0
  -10.0044   10.7687  -16.7683 C   0  0  0  0  0  0  0  0  0  0  0  0
   -9.8792    9.7063  -17.6605 C   0  0  0  0  0  0  0  0  0  0  0  0
   -8.6136    9.2650  -18.0507 C   0  0  0  0  0  0  0  0  0  0  0  0
   -4.9765   10.4583  -17.5784 C   0  0  2  0  0  0  0  0  0  0  0  0
   -5.0249   11.7606  -18.3842 C   0  0  0  0  0  0  0  0  0  0  0  0
   -3.5993   12.3208  -18.3767 C   0  0  0  0  0  0  0  0  0  0  0  0
   -2.7159   11.2642  -17.7079 C   0  0  2  0  0  0  0  0  0  0  0  0
   -1.3073   11.0824  -18.2990 C   0  0  0  0  0  0  0  0  0  0  0  0
   -0.4207   12.3563  -18.5162 C   0  0  0  0  0  0  0  0  0  0  0  0
    1.0403   11.9340  -18.7730 C   0  0  0  0  0  0  0  0  0  0  0  0
   -0.9488   13.0367  -19.8048 C   0  0  0  0  0  0  0  0  0  0  0  0
   -0.4966   13.3528  -17.3166 C   0  0  1  0  0  0  0  0  0  0  0  0
   -0.0408   12.7907  -15.9697 C   0  0  0  0  0  0  0  0  0  0  0  0
    0.3088   14.5077  -17.5589 O   0  0  0  0  0  0  0  0  0  0  0  0
   -3.5442    9.9791  -17.8372 C   0  0  0  0  0  0  0  0  0  0  0  0
  1  2  1  0
  2  3  1  0
  4  3  1  6
  4  5  1  0
  5  6  2  0
  6  7  1  0
  7  8  2  0
  8  9  1  0
  9 10  2  0
  4 11  1  0
 11 12  1  6
 12 13  1  0
 13 14  1  0
 14 15  1  6
 15 16  1  0
 16 17  1  0
 16 18  1  0
 16 19  1  0
 19 20  1  1
 19 21  1  0
 14 22  1  0
 10  5  1  0
 22 11  1  0
M  END
>  <CHROM.0>  (17) 
-154.94097961,63.32807333,-62.48740959,78.43536994,-76.66265825,-76.90356102
59.91604183,-175.45400299,-72.85628794,-63.59109473,-58.69376573

>  <CHROM.1>  (17) 
-80.85003482,-88.41905680,-140.32168093,54.76954297,50.20958910,165.95219632
60.02804217,67.63905148,-4.32432475,10.92349072,-18.01654935,-2.81794179
0.22653406,0.54028329

>  <Name>  (17) 
denovo_401

>  <RI>  (17) 
-5.35378e+08

>  <Rbt.Current_Directory>  (17) 
/tmp/claude-0/-home-user-Rare-cancers/1af35c7f-7dc4-53ce-91d2-1631a2a10a85/scratchpad/smwork/cross/dock_8XTT-model20

>  <Rbt.Executable>  (17) 
rbdock - v25.07-alpha

>  <Rbt.Library>  (17) 
libRbt.so (25.07, Buildalpha)

>  <Rbt.Parameter_File>  (17) 
/tmp/claude-0/-home-user-Rare-cancers/1af35c7f-7dc4-53ce-91d2-1631a2a10a85/scratchpad/rdroot/share/rDock/data/scripts/dock.prm

>  <Rbt.Receptor>  (17) 
rec.prm

>  <SCORE>  (17) 
-8.6902

>  <SCORE.INTER>  (17) 
-6.25844

>  <SCORE.INTER.CONST>  (17) 
1

>  <SCORE.INTER.POLAR>  (17) 
0

>  <SCORE.INTER.REPUL>  (17) 
0.00280221

>  <SCORE.INTER.ROT>  (17) 
7

>  <SCORE.INTER.VDW>  (17) 
-18.6725

>  <SCORE.INTER.norm>  (17) 
-0.284475

>  <SCORE.INTRA>  (17) 
4.66823

>  <SCORE.INTRA.DIHEDRAL>  (17) 
3.48264

>  <SCORE.INTRA.DIHEDRAL.0>  (17) 
3.78927

>  <SCORE.INTRA.POLAR>  (17) 
0

>  <SCORE.INTRA.POLAR.0>  (17) 
0

>  <SCORE.INTRA.REPUL>  (17) 
0

>  <SCORE.INTRA.REPUL.0>  (17) 
0

>  <SCORE.INTRA.VDW>  (17) 
2.92691

>  <SCORE.INTRA.VDW.0>  (17) 
1.02728

>  <SCORE.INTRA.norm>  (17) 
0.212192

>  <SCORE.RESTR>  (17) 
0

>  <SCORE.RESTR.CAVITY>  (17) 
0

>  <SCORE.RESTR.norm>  (17) 
0

>  <SCORE.SYSTEM>  (17) 
-7.09995

>  <SCORE.SYSTEM.CONST>  (17) 
0

>  <SCORE.SYSTEM.DIHEDRAL>  (17) 
6.04296

>  <SCORE.SYSTEM.POLAR>  (17) 
-1.80794

>  <SCORE.SYSTEM.REPUL>  (17) 
0.045305

>  <SCORE.SYSTEM.VDW>  (17) 
-4.20096

>  <SCORE.SYSTEM.norm>  (17) 
-0.322725

>  <SCORE.heavy>  (17) 
22

>  <SCORE.norm>  (17) 
-0.395008

$$$$
denovo_401
     RDKit          3D

 22 23  0  0  0  0  0  0  0  0999 V2000
   -6.4932    7.2683  -20.3780 C   0  0  0  0  0  0  0  0  0  0  0  0
   -6.7390    7.9833  -19.1743 O   0  0  0  0  0  0  0  0  0  0  0  0
   -5.8355    9.0799  -19.0177 C   0  0  0  0  0  0  0  0  0  0  0  0
   -6.1741    9.8725  -17.7362 C   0  0  2  0  0  0  0  0  0  0  0  0
   -7.6065   10.3886  -17.8205 C   0  0  0  0  0  0  0  0  0  0  0  0
   -8.5899    9.8510  -16.9764 C   0  0  0  0  0  0  0  0  0  0  0  0
   -9.9079   10.3069  -17.0386 C   0  0  0  0  0  0  0  0  0  0  0  0
  -10.2599   11.3041  -17.9450 C   0  0  0  0  0  0  0  0  0  0  0  0
   -9.2947   11.8464  -18.7903 C   0  0  0  0  0  0  0  0  0  0  0  0
   -7.9761   11.3919  -18.7302 C   0  0  0  0  0  0  0  0  0  0  0  0
   -5.1674   11.0171  -17.4550 C   0  0  2  0  0  0  0  0  0  0  0  0
   -5.0400   12.0480  -18.5813 C   0  0  0  0  0  0  0  0  0  0  0  0
   -3.6342   12.6439  -18.4582 C   0  0  0  0  0  0  0  0  0  0  0  0
   -2.9123   11.8441  -17.3703 C   0  0  2  0  0  0  0  0  0  0  0  0
   -1.4191   11.5629  -17.6111 C   0  0  0  0  0  0  0  0  0  0  0  0
   -0.4139   12.7630  -17.5378 C   0  0  0  0  0  0  0  0  0  0  0  0
   -0.0038   13.0075  -16.0712 C   0  0  0  0  0  0  0  0  0  0  0  0
    0.8513   12.3160  -18.3135 C   0  0  0  0  0  0  0  0  0  0  0  0
   -0.9919   14.0701  -18.1667 C   0  0  1  0  0  0  0  0  0  0  0  0
   -0.1320   15.3207  -17.9811 C   0  0  0  0  0  0  0  0  0  0  0  0
   -1.1787   13.9210  -19.5752 O   0  0  0  0  0  0  0  0  0  0  0  0
   -3.7194   10.5413  -17.2964 C   0  0  0  0  0  0  0  0  0  0  0  0
  1  2  1  0
  2  3  1  0
  4  3  1  6
  4  5  1  0
  5  6  2  0
  6  7  1  0
  7  8  2  0
  8  9  1  0
  9 10  2  0
  4 11  1  0
 11 12  1  6
 12 13  1  0
 13 14  1  0
 14 15  1  6
 15 16  1  0
 16 17  1  0
 16 18  1  0
 16 19  1  0
 19 20  1  6
 19 21  1  0
 14 22  1  0
 10  5  1  0
 22 11  1  0
M  END
>  <CHROM.0>  (18) 
-161.34281746,64.55863960,176.42360455,75.09582051,-74.39153984,48.74605983
-63.03145812,-178.05361839,-74.05985650,-56.74728487,62.19970223

>  <CHROM.1>  (18) 
177.31079250,-58.98933916,110.80557405,57.96413857,69.65812749,84.48909920
173.03431481,171.43774586,-4.54845381,11.39327802,-18.13004281,-2.72989908
0.05363603,0.24352902

>  <Name>  (18) 
denovo_401

>  <RI>  (18) 
-5.35378e+08

>  <Rbt.Current_Directory>  (18) 
/tmp/claude-0/-home-user-Rare-cancers/1af35c7f-7dc4-53ce-91d2-1631a2a10a85/scratchpad/smwork/cross/dock_8XTT-model20

>  <Rbt.Executable>  (18) 
rbdock - v25.07-alpha

>  <Rbt.Library>  (18) 
libRbt.so (25.07, Buildalpha)

>  <Rbt.Parameter_File>  (18) 
/tmp/claude-0/-home-user-Rare-cancers/1af35c7f-7dc4-53ce-91d2-1631a2a10a85/scratchpad/rdroot/share/rDock/data/scripts/dock.prm

>  <Rbt.Receptor>  (18) 
rec.prm

>  <SCORE>  (18) 
-8.2461

>  <SCORE.INTER>  (18) 
-4.42123

>  <SCORE.INTER.CONST>  (18) 
1

>  <SCORE.INTER.POLAR>  (18) 
0

>  <SCORE.INTER.REPUL>  (18) 
0

>  <SCORE.INTER.ROT>  (18) 
7

>  <SCORE.INTER.VDW>  (18) 
-16.8212

>  <SCORE.INTER.norm>  (18) 
-0.200965

>  <SCORE.INTRA>  (18) 
2.35332

>  <SCORE.INTRA.DIHEDRAL>  (18) 
0.343536

>  <SCORE.INTRA.DIHEDRAL.0>  (18) 
3.78927

>  <SCORE.INTRA.POLAR>  (18) 
0

>  <SCORE.INTRA.POLAR.0>  (18) 
0

>  <SCORE.INTRA.REPUL>  (18) 
0

>  <SCORE.INTRA.REPUL.0>  (18) 
0

>  <SCORE.INTRA.VDW>  (18) 
2.18155

>  <SCORE.INTRA.VDW.0>  (18) 
1.02728

>  <SCORE.INTRA.norm>  (18) 
0.106969

>  <SCORE.RESTR>  (18) 
0.409861

>  <SCORE.RESTR.CAVITY>  (18) 
0.409861

>  <SCORE.RESTR.norm>  (18) 
0.0186301

>  <SCORE.SYSTEM>  (18) 
-6.58805

>  <SCORE.SYSTEM.CONST>  (18) 
0

>  <SCORE.SYSTEM.DIHEDRAL>  (18) 
4.31246

>  <SCORE.SYSTEM.POLAR>  (18) 
-1.57601

>  <SCORE.SYSTEM.REPUL>  (18) 
0.048651

>  <SCORE.SYSTEM.VDW>  (18) 
-3.6291

>  <SCORE.SYSTEM.norm>  (18) 
-0.299457

>  <SCORE.heavy>  (18) 
22

>  <SCORE.norm>  (18) 
-0.374823

$$$$
denovo_401
     RDKit          3D

 22 23  0  0  0  0  0  0  0  0999 V2000
    0.7158   11.5498  -19.4912 C   0  0  0  0  0  0  0  0  0  0  0  0
    0.6349   11.8257  -18.0992 O   0  0  0  0  0  0  0  0  0  0  0  0
    0.0799   13.1190  -17.8487 C   0  0  0  0  0  0  0  0  0  0  0  0
   -1.4396   13.1109  -18.1243 C   0  0  2  0  0  0  0  0  0  0  0  0
   -1.9983   14.5174  -17.9379 C   0  0  0  0  0  0  0  0  0  0  0  0
   -1.6291   15.2684  -16.8116 C   0  0  0  0  0  0  0  0  0  0  0  0
   -2.1307   16.5570  -16.6198 C   0  0  0  0  0  0  0  0  0  0  0  0
   -3.0076   17.1107  -17.5496 C   0  0  0  0  0  0  0  0  0  0  0  0
   -3.3841   16.3766  -18.6719 C   0  0  0  0  0  0  0  0  0  0  0  0
   -2.8841   15.0876  -18.8657 C   0  0  0  0  0  0  0  0  0  0  0  0
   -2.2005   12.0722  -17.2612 C   0  0  2  0  0  0  0  0  0  0  0  0
   -2.0501   10.6203  -17.7271 C   0  0  0  0  0  0  0  0  0  0  0  0
   -3.3062    9.8857  -17.2484 C   0  0  0  0  0  0  0  0  0  0  0  0
   -4.2360   10.9473  -16.6546 C   0  0  2  0  0  0  0  0  0  0  0  0
   -5.7399   10.7580  -16.9179 C   0  0  0  0  0  0  0  0  0  0  0  0
   -6.1856   10.1699  -18.3005 C   0  0  0  0  0  0  0  0  0  0  0  0
   -5.4063   10.8650  -19.4356 C   0  0  0  0  0  0  0  0  0  0  0  0
   -5.7715    8.6764  -18.2894 C   0  0  0  0  0  0  0  0  0  0  0  0
   -7.7234   10.2959  -18.5394 C   0  0  1  0  0  0  0  0  0  0  0  0
   -8.6064    9.6660  -17.4617 C   0  0  0  0  0  0  0  0  0  0  0  0
   -8.1173   11.6665  -18.6255 O   0  0  0  0  0  0  0  0  0  0  0  0
   -3.7221   12.2530  -17.2753 C   0  0  0  0  0  0  0  0  0  0  0  0
  1  2  1  0
  2  3  1  0
  4  3  1  1
  4  5  1  0
  5  6  2  0
  6  7  1  0
  7  8  2  0
  8  9  1  0
  9 10  2  0
  4 11  1  0
 11 12  1  6
 12 13  1  0
 13 14  1  0
 14 15  1  6
 15 16  1  0
 16 17  1  0
 16 18  1  0
 16 19  1  0
 19 20  1  1
 19 21  1  0
 14 22  1  0
 10  5  1  0
 22 11  1  0
M  END
>  <CHROM.0>  (19) 
24.48033301,-56.69588908,-62.58640934,114.56979457,-79.43475889,-75.83315189
-68.96179266,-53.88354141,179.30571812,67.49152919,63.47185250

>  <CHROM.1>  (19) 
73.50288217,-176.42898206,-45.85272994,-76.26201246,-35.86977886,-45.25272244
-55.91408434,173.46083375,-3.59099789,12.29179940,-17.92113847,-0.63163059
-0.01106955,-3.08420176

>  <Name>  (19) 
denovo_401

>  <RI>  (19) 
-5.35378e+08

>  <Rbt.Current_Directory>  (19) 
/tmp/claude-0/-home-user-Rare-cancers/1af35c7f-7dc4-53ce-91d2-1631a2a10a85/scratchpad/smwork/cross/dock_8XTT-model20

>  <Rbt.Executable>  (19) 
rbdock - v25.07-alpha

>  <Rbt.Library>  (19) 
libRbt.so (25.07, Buildalpha)

>  <Rbt.Parameter_File>  (19) 
/tmp/claude-0/-home-user-Rare-cancers/1af35c7f-7dc4-53ce-91d2-1631a2a10a85/scratchpad/rdroot/share/rDock/data/scripts/dock.prm

>  <Rbt.Receptor>  (19) 
rec.prm

>  <SCORE>  (19) 
-8.1000

>  <SCORE.INTER>  (19) 
-8.95983

>  <SCORE.INTER.CONST>  (19) 
1

>  <SCORE.INTER.POLAR>  (19) 
0

>  <SCORE.INTER.REPUL>  (19) 
0

>  <SCORE.INTER.ROT>  (19) 
7

>  <SCORE.INTER.VDW>  (19) 
-21.3598

>  <SCORE.INTER.norm>  (19) 
-0.407265

>  <SCORE.INTRA>  (19) 
7.10356

>  <SCORE.INTRA.DIHEDRAL>  (19) 
2.23092

>  <SCORE.INTRA.DIHEDRAL.0>  (19) 
3.78927

>  <SCORE.INTRA.POLAR>  (19) 
0

>  <SCORE.INTRA.POLAR.0>  (19) 
0

>  <SCORE.INTRA.REPUL>  (19) 
0

>  <SCORE.INTRA.REPUL.0>  (19) 
0

>  <SCORE.INTRA.VDW>  (19) 
5.9881

>  <SCORE.INTRA.VDW.0>  (19) 
1.02728

>  <SCORE.INTRA.norm>  (19) 
0.322889

>  <SCORE.RESTR>  (19) 
0

>  <SCORE.RESTR.CAVITY>  (19) 
0

>  <SCORE.RESTR.norm>  (19) 
0

>  <SCORE.SYSTEM>  (19) 
-6.24369

>  <SCORE.SYSTEM.CONST>  (19) 
0

>  <SCORE.SYSTEM.DIHEDRAL>  (19) 
11.5408

>  <SCORE.SYSTEM.POLAR>  (19) 
-2.74247

>  <SCORE.SYSTEM.REPUL>  (19) 
0.0229635

>  <SCORE.SYSTEM.VDW>  (19) 
-2.80449

>  <SCORE.SYSTEM.norm>  (19) 
-0.283804

>  <SCORE.heavy>  (19) 
22

>  <SCORE.norm>  (19) 
-0.36818

$$$$
denovo_401
     RDKit          3D

 22 23  0  0  0  0  0  0  0  0999 V2000
  -10.1470    8.6084  -19.1050 C   0  0  0  0  0  0  0  0  0  0  0  0
   -9.3614    9.0800  -18.0184 O   0  0  0  0  0  0  0  0  0  0  0  0
   -8.0275    9.3912  -18.4272 C   0  0  0  0  0  0  0  0  0  0  0  0
   -7.2656   10.0889  -17.2792 C   0  0  2  0  0  0  0  0  0  0  0  0
   -7.9821   11.3818  -16.9048 C   0  0  0  0  0  0  0  0  0  0  0  0
   -8.6204   12.1364  -17.9007 C   0  0  0  0  0  0  0  0  0  0  0  0
   -9.2798   13.3244  -17.5805 C   0  0  0  0  0  0  0  0  0  0  0  0
   -9.3089   13.7737  -16.2625 C   0  0  0  0  0  0  0  0  0  0  0  0
   -8.6786   13.0359  -15.2632 C   0  0  0  0  0  0  0  0  0  0  0  0
   -8.0182   11.8477  -15.5810 C   0  0  0  0  0  0  0  0  0  0  0  0
   -5.7724   10.3363  -17.6133 C   0  0  2  0  0  0  0  0  0  0  0  0
   -4.9004   10.7068  -16.4091 C   0  0  0  0  0  0  0  0  0  0  0  0
   -3.7331   11.5292  -16.9637 C   0  0  0  0  0  0  0  0  0  0  0  0
   -4.0249   11.7592  -18.4490 C   0  0  2  0  0  0  0  0  0  0  0  0
   -3.6336   13.1357  -19.0136 C   0  0  0  0  0  0  0  0  0  0  0  0
   -2.1111   13.4628  -19.1901 C   0  0  0  0  0  0  0  0  0  0  0  0
   -1.3847   13.2964  -17.8398 C   0  0  0  0  0  0  0  0  0  0  0  0
   -1.5491   12.3953  -20.1632 C   0  0  0  0  0  0  0  0  0  0  0  0
   -1.8667   14.8928  -19.7673 C   0  0  1  0  0  0  0  0  0  0  0  0
   -2.5131   15.1692  -21.1251 C   0  0  0  0  0  0  0  0  0  0  0  0
   -2.3635   15.8951  -18.8787 O   0  0  0  0  0  0  0  0  0  0  0  0
   -5.5379   11.5250  -18.5514 C   0  0  0  0  0  0  0  0  0  0  0  0
  1  2  1  0
  2  3  1  0
  4  3  1  6
  4  5  1  0
  5  6  2  0
  6  7  1  0
  7  8  2  0
  8  9  1  0
  9 10  2  0
  4 11  1  0
 11 12  1  1
 12 13  1  0
 13 14  1  0
 14 15  1  1
 15 16  1  0
 16 17  1  0
 16 18  1  0
 16 19  1  0
 19 20  1  6
 19 21  1  0
 14 22  1  0
 10  5  1  0
 22 11  1  0
M  END
>  <CHROM.0>  (20) 
-161.03692316,-59.06704097,-62.67160349,73.73655305,-80.47348454,51.82118278
-65.42766876,-178.23721930,-179.50129640,-62.88507407,62.15375405

>  <CHROM.1>  (20) 
171.81849965,-60.19273685,-34.53928291,-165.89229897,71.18507908,-56.45565082
-58.37305959,173.64273790,-5.66812460,12.13849187,-18.06397229,-2.77517644
0.38193365,0.24343188

>  <Name>  (20) 
denovo_401

>  <RI>  (20) 
-5.35378e+08

>  <Rbt.Current_Directory>  (20) 
/tmp/claude-0/-home-user-Rare-cancers/1af35c7f-7dc4-53ce-91d2-1631a2a10a85/scratchpad/smwork/cross/dock_8XTT-model20

>  <Rbt.Executable>  (20) 
rbdock - v25.07-alpha

>  <Rbt.Library>  (20) 
libRbt.so (25.07, Buildalpha)

>  <Rbt.Parameter_File>  (20) 
/tmp/claude-0/-home-user-Rare-cancers/1af35c7f-7dc4-53ce-91d2-1631a2a10a85/scratchpad/rdroot/share/rDock/data/scripts/dock.prm

>  <Rbt.Receptor>  (20) 
rec.prm

>  <SCORE>  (20) 
-8.0977

>  <SCORE.INTER>  (20) 
-3.16681

>  <SCORE.INTER.CONST>  (20) 
1

>  <SCORE.INTER.POLAR>  (20) 
0

>  <SCORE.INTER.REPUL>  (20) 
0

>  <SCORE.INTER.ROT>  (20) 
7

>  <SCORE.INTER.VDW>  (20) 
-15.5668

>  <SCORE.INTER.norm>  (20) 
-0.143946

>  <SCORE.INTRA>  (20) 
1.8879

>  <SCORE.INTRA.DIHEDRAL>  (20) 
-0.929877

>  <SCORE.INTRA.DIHEDRAL.0>  (20) 
3.78927

>  <SCORE.INTRA.POLAR>  (20) 
0

>  <SCORE.INTRA.POLAR.0>  (20) 
0

>  <SCORE.INTRA.REPUL>  (20) 
0

>  <SCORE.INTRA.REPUL.0>  (20) 
0

>  <SCORE.INTRA.VDW>  (20) 
2.35283

>  <SCORE.INTRA.VDW.0>  (20) 
1.02728

>  <SCORE.INTRA.norm>  (20) 
0.0858135

>  <SCORE.RESTR>  (20) 
0.0439645

>  <SCORE.RESTR.CAVITY>  (20) 
0.0439645

>  <SCORE.RESTR.norm>  (20) 
0.00199839

>  <SCORE.SYSTEM>  (20) 
-6.86271

>  <SCORE.SYSTEM.CONST>  (20) 
0

>  <SCORE.SYSTEM.DIHEDRAL>  (20) 
3.80269

>  <SCORE.SYSTEM.POLAR>  (20) 
-1.42054

>  <SCORE.SYSTEM.REPUL>  (20) 
0.0992126

>  <SCORE.SYSTEM.VDW>  (20) 
-4.43028

>  <SCORE.SYSTEM.norm>  (20) 
-0.311941

>  <SCORE.heavy>  (20) 
22

>  <SCORE.norm>  (20) 
-0.368075

$$$$
denovo_401
     RDKit          3D

 22 23  0  0  0  0  0  0  0  0999 V2000
   -3.4955    8.9406  -21.1437 C   0  0  0  0  0  0  0  0  0  0  0  0
   -3.8026   10.1171  -20.4076 O   0  0  0  0  0  0  0  0  0  0  0  0
   -2.6690   10.5956  -19.6800 C   0  0  0  0  0  0  0  0  0  0  0  0
   -2.9891   11.9582  -19.0274 C   0  0  2  0  0  0  0  0  0  0  0  0
   -1.7370   12.5051  -18.3505 C   0  0  0  0  0  0  0  0  0  0  0  0
   -1.1248   11.7707  -17.3235 C   0  0  0  0  0  0  0  0  0  0  0  0
    0.0206   12.2538  -16.6885 C   0  0  0  0  0  0  0  0  0  0  0  0
    0.5678   13.4764  -17.0704 C   0  0  0  0  0  0  0  0  0  0  0  0
   -0.0297   14.2173  -18.0873 C   0  0  0  0  0  0  0  0  0  0  0  0
   -1.1754   13.7363  -18.7237 C   0  0  0  0  0  0  0  0  0  0  0  0
   -4.1871   11.8869  -18.0464 C   0  0  2  0  0  0  0  0  0  0  0  0
   -4.1736   10.6765  -17.1071 C   0  0  0  0  0  0  0  0  0  0  0  0
   -5.6355   10.4049  -16.7389 C   0  0  0  0  0  0  0  0  0  0  0  0
   -6.4855   11.3536  -17.5884 C   0  0  2  0  0  0  0  0  0  0  0  0
   -7.8144   10.7868  -18.1172 C   0  0  0  0  0  0  0  0  0  0  0  0
   -8.9758   11.7887  -18.4391 C   0  0  0  0  0  0  0  0  0  0  0  0
   -9.2726   12.6550  -17.1981 C   0  0  0  0  0  0  0  0  0  0  0  0
   -8.4428   12.7259  -19.5526 C   0  0  0  0  0  0  0  0  0  0  0  0
  -10.2736   11.0684  -18.9234 C   0  0  1  0  0  0  0  0  0  0  0  0
  -10.8868   10.0850  -17.9259 C   0  0  0  0  0  0  0  0  0  0  0  0
  -11.2992   12.0141  -19.2314 O   0  0  0  0  0  0  0  0  0  0  0  0
   -5.5452   11.7343  -18.7396 C   0  0  0  0  0  0  0  0  0  0  0  0
  1  2  1  0
  2  3  1  0
  4  3  1  1
  4  5  1  0
  5  6  2  0
  6  7  1  0
  7  8  2  0
  8  9  1  0
  9 10  2  0
  4 11  1  0
 11 12  1  1
 12 13  1  0
 13 14  1  0
 14 15  1  6
 15 16  1  0
 16 17  1  0
 16 18  1  0
 16 19  1  0
 19 20  1  1
 19 21  1  0
 14 22  1  0
 10  5  1  0
 22 11  1  0
M  END
>  <CHROM.0>  (21) 
-161.10392064,177.41354730,-59.73122602,179.20555746,57.92720790,-155.77024166
173.74339964,179.26216388,-179.66992651,67.98866254,61.85020385

>  <CHROM.1>  (21) 
173.41581960,-175.50808973,-60.08557948,44.12917260,154.34207706,-54.84182412
60.36689602,155.54235057,-5.12882939,11.62646923,-18.41256530,-0.11726213
-0.04256150,-2.40320657

>  <Name>  (21) 
denovo_401

>  <RI>  (21) 
-5.35378e+08

>  <Rbt.Current_Directory>  (21) 
/tmp/claude-0/-home-user-Rare-cancers/1af35c7f-7dc4-53ce-91d2-1631a2a10a85/scratchpad/smwork/cross/dock_8XTT-model20

>  <Rbt.Executable>  (21) 
rbdock - v25.07-alpha

>  <Rbt.Library>  (21) 
libRbt.so (25.07, Buildalpha)

>  <Rbt.Parameter_File>  (21) 
/tmp/claude-0/-home-user-Rare-cancers/1af35c7f-7dc4-53ce-91d2-1631a2a10a85/scratchpad/rdroot/share/rDock/data/scripts/dock.prm

>  <Rbt.Receptor>  (21) 
rec.prm

>  <SCORE>  (21) 
-7.9351

>  <SCORE.INTER>  (21) 
-8.91132

>  <SCORE.INTER.CONST>  (21) 
1

>  <SCORE.INTER.POLAR>  (21) 
-1.61077

>  <SCORE.INTER.REPUL>  (21) 
0

>  <SCORE.INTER.ROT>  (21) 
7

>  <SCORE.INTER.VDW>  (21) 
-15.8347

>  <SCORE.INTER.norm>  (21) 
-0.40506

>  <SCORE.INTRA>  (21) 
3.43067

>  <SCORE.INTRA.DIHEDRAL>  (21) 
3.46263

>  <SCORE.INTRA.DIHEDRAL.0>  (21) 
3.78927

>  <SCORE.INTRA.POLAR>  (21) 
0

>  <SCORE.INTRA.POLAR.0>  (21) 
0

>  <SCORE.INTRA.REPUL>  (21) 
0

>  <SCORE.INTRA.REPUL.0>  (21) 
0

>  <SCORE.INTRA.VDW>  (21) 
1.69935

>  <SCORE.INTRA.VDW.0>  (21) 
1.02728

>  <SCORE.INTRA.norm>  (21) 
0.155939

>  <SCORE.RESTR>  (21) 
0

>  <SCORE.RESTR.CAVITY>  (21) 
0

>  <SCORE.RESTR.norm>  (21) 
0

>  <SCORE.SYSTEM>  (21) 
-2.45447

>  <SCORE.SYSTEM.CONST>  (21) 
0

>  <SCORE.SYSTEM.DIHEDRAL>  (21) 
3.51259

>  <SCORE.SYSTEM.POLAR>  (21) 
-0.555738

>  <SCORE.SYSTEM.REPUL>  (21) 
0.0580993

>  <SCORE.SYSTEM.VDW>  (21) 
-2.61175

>  <SCORE.SYSTEM.norm>  (21) 
-0.111567

>  <SCORE.heavy>  (21) 
22

>  <SCORE.norm>  (21) 
-0.360687

$$$$
denovo_401
     RDKit          3D

 22 23  0  0  0  0  0  0  0  0999 V2000
    0.1440   12.4835  -16.8359 C   0  0  0  0  0  0  0  0  0  0  0  0
   -1.2609   12.3598  -17.0136 O   0  0  0  0  0  0  0  0  0  0  0  0
   -1.5919   11.9690  -18.3481 C   0  0  0  0  0  0  0  0  0  0  0  0
   -3.0189   12.4399  -18.7045 C   0  0  2  0  0  0  0  0  0  0  0  0
   -3.1209   13.9486  -18.5086 C   0  0  0  0  0  0  0  0  0  0  0  0
   -3.4762   14.7678  -19.5910 C   0  0  0  0  0  0  0  0  0  0  0  0
   -3.5729   16.1515  -19.4346 C   0  0  0  0  0  0  0  0  0  0  0  0
   -3.3149   16.7341  -18.1960 C   0  0  0  0  0  0  0  0  0  0  0  0
   -2.9598   15.9339  -17.1127 C   0  0  0  0  0  0  0  0  0  0  0  0
   -2.8622   14.5498  -17.2667 C   0  0  0  0  0  0  0  0  0  0  0  0
   -4.1157   11.6830  -17.9127 C   0  0  2  0  0  0  0  0  0  0  0  0
   -3.9631   10.1585  -17.9064 C   0  0  0  0  0  0  0  0  0  0  0  0
   -5.3714    9.5889  -17.7091 C   0  0  0  0  0  0  0  0  0  0  0  0
   -6.3365   10.7762  -17.7629 C   0  0  2  0  0  0  0  0  0  0  0  0
   -7.6839   10.5261  -18.4620 C   0  0  0  0  0  0  0  0  0  0  0  0
   -8.8024   11.6166  -18.3355 C   0  0  0  0  0  0  0  0  0  0  0  0
   -8.8184   12.1792  -16.8995 C   0  0  0  0  0  0  0  0  0  0  0  0
   -8.3941   12.7681  -19.2892 C   0  0  0  0  0  0  0  0  0  0  0  0
  -10.2148   11.0765  -18.7244 C   0  0  1  0  0  0  0  0  0  0  0  0
  -10.7242    9.9090  -17.8787 C   0  0  0  0  0  0  0  0  0  0  0  0
  -11.2020   12.1039  -18.6201 O   0  0  0  0  0  0  0  0  0  0  0  0
   -5.5250   11.8576  -18.4885 C   0  0  0  0  0  0  0  0  0  0  0  0
  1  2  1  0
  2  3  1  0
  4  3  1  1
  4  5  1  0
  5  6  2  0
  6  7  1  0
  7  8  2  0
  8  9  1  0
  9 10  2  0
  4 11  1  0
 11 12  1  6
 12 13  1  0
 13 14  1  0
 14 15  1  6
 15 16  1  0
 16 17  1  0
 16 18  1  0
 16 19  1  0
 19 20  1  1
 19 21  1  0
 14 22  1  0
 10  5  1  0
 22 11  1  0
M  END
>  <CHROM.0>  (22) 
30.15683999,61.01985403,172.42796419,179.06124462,57.26284564,50.69121359
-73.78293534,-178.13635504,71.54988105,-61.37959960,63.83582004

>  <CHROM.1>  (22) 
-154.61966044,56.31977749,121.23258915,-48.24614278,169.72320937,-40.16539195
60.29469583,64.85380321,-5.35083844,12.47328036,-18.12192739,-0.31606361
0.11166102,2.97511150

>  <Name>  (22) 
denovo_401

>  <RI>  (22) 
-5.35378e+08

>  <Rbt.Current_Directory>  (22) 
/tmp/claude-0/-home-user-Rare-cancers/1af35c7f-7dc4-53ce-91d2-1631a2a10a85/scratchpad/smwork/cross/dock_8XTT-model20

>  <Rbt.Executable>  (22) 
rbdock - v25.07-alpha

>  <Rbt.Library>  (22) 
libRbt.so (25.07, Buildalpha)

>  <Rbt.Parameter_File>  (22) 
/tmp/claude-0/-home-user-Rare-cancers/1af35c7f-7dc4-53ce-91d2-1631a2a10a85/scratchpad/rdroot/share/rDock/data/scripts/dock.prm

>  <Rbt.Receptor>  (22) 
rec.prm

>  <SCORE>  (22) 
-6.8176

>  <SCORE.INTER>  (22) 
-7.05064

>  <SCORE.INTER.CONST>  (22) 
1

>  <SCORE.INTER.POLAR>  (22) 
-0.641811

>  <SCORE.INTER.REPUL>  (22) 
0.147291

>  <SCORE.INTER.ROT>  (22) 
7

>  <SCORE.INTER.VDW>  (22) 
-18.0049

>  <SCORE.INTER.norm>  (22) 
-0.320484

>  <SCORE.INTRA>  (22) 
3.10435

>  <SCORE.INTRA.DIHEDRAL>  (22) 
2.47174

>  <SCORE.INTRA.DIHEDRAL.0>  (22) 
3.78927

>  <SCORE.INTRA.POLAR>  (22) 
0

>  <SCORE.INTRA.POLAR.0>  (22) 
0

>  <SCORE.INTRA.REPUL>  (22) 
0

>  <SCORE.INTRA.REPUL.0>  (22) 
0

>  <SCORE.INTRA.VDW>  (22) 
1.86849

>  <SCORE.INTRA.VDW.0>  (22) 
1.02728

>  <SCORE.INTRA.norm>  (22) 
0.141107

>  <SCORE.RESTR>  (22) 
0

>  <SCORE.RESTR.CAVITY>  (22) 
0

>  <SCORE.RESTR.norm>  (22) 
0

>  <SCORE.SYSTEM>  (22) 
-2.87134

>  <SCORE.SYSTEM.CONST>  (22) 
0

>  <SCORE.SYSTEM.DIHEDRAL>  (22) 
3.15441

>  <SCORE.SYSTEM.POLAR>  (22) 
-0.657657

>  <SCORE.SYSTEM.REPUL>  (22) 
0.0749945

>  <SCORE.SYSTEM.VDW>  (22) 
-2.58748

>  <SCORE.SYSTEM.norm>  (22) 
-0.130516

>  <SCORE.heavy>  (22) 
22

>  <SCORE.norm>  (22) 
-0.309892

$$$$
denovo_401
     RDKit          3D

 22 23  0  0  0  0  0  0  0  0999 V2000
   -0.2286   14.0250  -17.1833 C   0  0  0  0  0  0  0  0  0  0  0  0
   -0.5915   12.6624  -17.3623 O   0  0  0  0  0  0  0  0  0  0  0  0
   -1.9930   12.4594  -17.1683 C   0  0  0  0  0  0  0  0  0  0  0  0
   -2.3412   10.9618  -17.3129 C   0  0  2  0  0  0  0  0  0  0  0  0
   -2.1114   10.5227  -18.7549 C   0  0  0  0  0  0  0  0  0  0  0  0
   -3.1889   10.4953  -19.6534 C   0  0  0  0  0  0  0  0  0  0  0  0
   -3.0015   10.0942  -20.9773 C   0  0  0  0  0  0  0  0  0  0  0  0
   -1.7366    9.7146  -21.4197 C   0  0  0  0  0  0  0  0  0  0  0  0
   -0.6576    9.7354  -20.5389 C   0  0  0  0  0  0  0  0  0  0  0  0
   -0.8426   10.1359  -19.2144 C   0  0  0  0  0  0  0  0  0  0  0  0
   -3.7779   10.6307  -16.8343 C   0  0  2  0  0  0  0  0  0  0  0  0
   -4.2659    9.2251  -17.1998 C   0  0  0  0  0  0  0  0  0  0  0  0
   -5.7936    9.3089  -17.2735 C   0  0  0  0  0  0  0  0  0  0  0  0
   -6.1606   10.7861  -17.1082 C   0  0  2  0  0  0  0  0  0  0  0  0
   -7.3366   11.2939  -17.9602 C   0  0  0  0  0  0  0  0  0  0  0  0
   -8.7929   10.9206  -17.5175 C   0  0  0  0  0  0  0  0  0  0  0  0
   -9.8117   11.6784  -18.3929 C   0  0  0  0  0  0  0  0  0  0  0  0
   -8.9578    9.4064  -17.8047 C   0  0  0  0  0  0  0  0  0  0  0  0
   -9.0536   11.2087  -16.0053 C   0  0  1  0  0  0  0  0  0  0  0  0
   -8.6556   12.6056  -15.5277 C   0  0  0  0  0  0  0  0  0  0  0  0
  -10.4383   11.0588  -15.6872 O   0  0  0  0  0  0  0  0  0  0  0  0
   -4.8586   11.5149  -17.4656 C   0  0  0  0  0  0  0  0  0  0  0  0
  1  2  1  0
  2  3  1  0
  4  3  1  6
  4  5  1  0
  5  6  2  0
  6  7  1  0
  7  8  2  0
  8  9  1  0
  9 10  2  0
  4 11  1  0
 11 12  1  6
 12 13  1  0
 13 14  1  0
 14 15  1  6
 15 16  1  0
 16 17  1  0
 16 18  1  0
 16 19  1  0
 19 20  1  6
 19 21  1  0
 14 22  1  0
 10  5  1  0
 22 11  1  0
M  END
>  <CHROM.0>  (23) 
28.34585278,174.79736502,-59.97044397,-63.70779505,-176.65908788,48.34922539
-61.53232188,-56.89416396,-77.69328260,-61.60282887,-60.16352431

>  <CHROM.1>  (23) 
-177.67928691,-66.63506791,-96.07289193,168.91071892,76.31944121,172.57605387
50.03968085,60.71722105,-4.84306077,10.96999186,-17.86299097,-0.18804577
0.18316961,0.85729743

>  <Name>  (23) 
denovo_401

>  <RI>  (23) 
-5.35378e+08

>  <Rbt.Current_Directory>  (23) 
/tmp/claude-0/-home-user-Rare-cancers/1af35c7f-7dc4-53ce-91d2-1631a2a10a85/scratchpad/smwork/cross/dock_8XTT-model20

>  <Rbt.Executable>  (23) 
rbdock - v25.07-alpha

>  <Rbt.Library>  (23) 
libRbt.so (25.07, Buildalpha)

>  <Rbt.Parameter_File>  (23) 
/tmp/claude-0/-home-user-Rare-cancers/1af35c7f-7dc4-53ce-91d2-1631a2a10a85/scratchpad/rdroot/share/rDock/data/scripts/dock.prm

>  <Rbt.Receptor>  (23) 
rec.prm

>  <SCORE>  (23) 
-6.2325

>  <SCORE.INTER>  (23) 
-9.03287

>  <SCORE.INTER.CONST>  (23) 
1

>  <SCORE.INTER.POLAR>  (23) 
-0.891607

>  <SCORE.INTER.REPUL>  (23) 
0.0418858

>  <SCORE.INTER.ROT>  (23) 
7

>  <SCORE.INTER.VDW>  (23) 
-18.6108

>  <SCORE.INTER.norm>  (23) 
-0.410585

>  <SCORE.INTRA>  (23) 
2.04395

>  <SCORE.INTRA.DIHEDRAL>  (23) 
-0.0892534

>  <SCORE.INTRA.DIHEDRAL.0>  (23) 
3.78927

>  <SCORE.INTRA.POLAR>  (23) 
0

>  <SCORE.INTRA.POLAR.0>  (23) 
0

>  <SCORE.INTRA.REPUL>  (23) 
0

>  <SCORE.INTRA.REPUL.0>  (23) 
0

>  <SCORE.INTRA.VDW>  (23) 
2.08858

>  <SCORE.INTRA.VDW.0>  (23) 
1.02728

>  <SCORE.INTRA.norm>  (23) 
0.0929069

>  <SCORE.RESTR>  (23) 
0

>  <SCORE.RESTR.CAVITY>  (23) 
0

>  <SCORE.RESTR.norm>  (23) 
0

>  <SCORE.SYSTEM>  (23) 
0.756439

>  <SCORE.SYSTEM.CONST>  (23) 
0

>  <SCORE.SYSTEM.DIHEDRAL>  (23) 
3.43691

>  <SCORE.SYSTEM.POLAR>  (23) 
-0.340716

>  <SCORE.SYSTEM.REPUL>  (23) 
0.371721

>  <SCORE.SYSTEM.VDW>  (23) 
-1.66219

>  <SCORE.SYSTEM.norm>  (23) 
0.0343836

>  <SCORE.heavy>  (23) 
22

>  <SCORE.norm>  (23) 
-0.283294

$$$$
denovo_401
     RDKit          3D

 22 23  0  0  0  0  0  0  0  0999 V2000
    1.0848   10.0991  -19.9915 C   0  0  0  0  0  0  0  0  0  0  0  0
    0.0051   10.9788  -19.7072 O   0  0  0  0  0  0  0  0  0  0  0  0
   -1.0981   10.2873  -19.1172 C   0  0  0  0  0  0  0  0  0  0  0  0
   -2.1877   11.2917  -18.6826 C   0  0  2  0  0  0  0  0  0  0  0  0
   -1.5713   12.3499  -17.7741 C   0  0  0  0  0  0  0  0  0  0  0  0
   -0.6789   11.9635  -16.7627 C   0  0  0  0  0  0  0  0  0  0  0  0
   -0.1051   12.9154  -15.9181 C   0  0  0  0  0  0  0  0  0  0  0  0
   -0.4162   14.2642  -16.0724 C   0  0  0  0  0  0  0  0  0  0  0  0
   -1.3015   14.6627  -17.0712 C   0  0  0  0  0  0  0  0  0  0  0  0
   -1.8769   13.7126  -17.9169 C   0  0  0  0  0  0  0  0  0  0  0  0
   -3.4069   10.6038  -18.0171 C   0  0  2  0  0  0  0  0  0  0  0  0
   -4.3727    9.9275  -18.9957 C   0  0  0  0  0  0  0  0  0  0  0  0
   -5.7416    9.9197  -18.3082 C   0  0  0  0  0  0  0  0  0  0  0  0
   -5.5887   10.7276  -17.0167 C   0  0  2  0  0  0  0  0  0  0  0  0
   -6.7849   11.6108  -16.6216 C   0  0  0  0  0  0  0  0  0  0  0  0
   -8.2167   11.1781  -17.0894 C   0  0  0  0  0  0  0  0  0  0  0  0
   -8.4063    9.6664  -16.8493 C   0  0  0  0  0  0  0  0  0  0  0  0
   -9.2166   11.9304  -16.1748 C   0  0  0  0  0  0  0  0  0  0  0  0
   -8.4921   11.5306  -18.5853 C   0  0  1  0  0  0  0  0  0  0  0  0
   -9.9209   11.2735  -19.0654 C   0  0  0  0  0  0  0  0  0  0  0  0
   -8.2282   12.9108  -18.8428 O   0  0  0  0  0  0  0  0  0  0  0  0
   -4.3344   11.5724  -17.2757 C   0  0  0  0  0  0  0  0  0  0  0  0
  1  2  1  0
  2  3  1  0
  4  3  1  1
  4  5  1  0
  5  6  2  0
  6  7  1  0
  7  8  2  0
  8  9  1  0
  9 10  2  0
  4 11  1  0
 11 12  1  6
 12 13  1  0
 13 14  1  0
 14 15  1  6
 15 16  1  0
 16 17  1  0
 16 18  1  0
 16 19  1  0
 19 20  1  1
 19 21  1  0
 14 22  1  0
 10  5  1  0
 22 11  1  0
M  END
>  <CHROM.0>  (24) 
-161.55203087,-177.99250136,57.89147476,-65.45540782,-74.60822438,-77.72912870
175.87521663,-175.04297967,-72.47631072,68.12828552,62.54416430

>  <CHROM.1>  (24) 
173.88920491,-54.19786900,-43.86031043,-77.33768990,27.72335037,44.89482343
-173.68844913,-57.93569124,-4.21118478,11.58111489,-17.85394824,-0.04310519
-0.09003090,-2.47558542

>  <Name>  (24) 
denovo_401

>  <RI>  (24) 
-5.35378e+08

>  <Rbt.Current_Directory>  (24) 
/tmp/claude-0/-home-user-Rare-cancers/1af35c7f-7dc4-53ce-91d2-1631a2a10a85/scratchpad/smwork/cross/dock_8XTT-model20

>  <Rbt.Executable>  (24) 
rbdock - v25.07-alpha

>  <Rbt.Library>  (24) 
libRbt.so (25.07, Buildalpha)

>  <Rbt.Parameter_File>  (24) 
/tmp/claude-0/-home-user-Rare-cancers/1af35c7f-7dc4-53ce-91d2-1631a2a10a85/scratchpad/rdroot/share/rDock/data/scripts/dock.prm

>  <Rbt.Receptor>  (24) 
rec.prm

>  <SCORE>  (24) 
-3.3868

>  <SCORE.INTER>  (24) 
-4.50439

>  <SCORE.INTER.CONST>  (24) 
1

>  <SCORE.INTER.POLAR>  (24) 
0

>  <SCORE.INTER.REPUL>  (24) 
0.170688

>  <SCORE.INTER.ROT>  (24) 
7

>  <SCORE.INTER.VDW>  (24) 
-17.7578

>  <SCORE.INTER.norm>  (24) 
-0.204745

>  <SCORE.INTRA>  (24) 
4.98789

>  <SCORE.INTRA.DIHEDRAL>  (24) 
3.68507

>  <SCORE.INTRA.DIHEDRAL.0>  (24) 
3.78927

>  <SCORE.INTRA.POLAR>  (24) 
0

>  <SCORE.INTRA.POLAR.0>  (24) 
0

>  <SCORE.INTRA.REPUL>  (24) 
0

>  <SCORE.INTRA.REPUL.0>  (24) 
0

>  <SCORE.INTRA.VDW>  (24) 
3.14535

>  <SCORE.INTRA.VDW.0>  (24) 
1.02728

>  <SCORE.INTRA.norm>  (24) 
0.226722

>  <SCORE.RESTR>  (24) 
0

>  <SCORE.RESTR.CAVITY>  (24) 
0

>  <SCORE.RESTR.norm>  (24) 
0

>  <SCORE.SYSTEM>  (24) 
-3.8703

>  <SCORE.SYSTEM.CONST>  (24) 
0

>  <SCORE.SYSTEM.DIHEDRAL>  (24) 
4.37095

>  <SCORE.SYSTEM.POLAR>  (24) 
-1.78977

>  <SCORE.SYSTEM.REPUL>  (24) 
0.916401

>  <SCORE.SYSTEM.VDW>  (24) 
-4.55256

>  <SCORE.SYSTEM.norm>  (24) 
-0.175923

>  <SCORE.heavy>  (24) 
22

>  <SCORE.norm>  (24) 
-0.153945

$$$$
denovo_401
     RDKit          3D

 22 23  0  0  0  0  0  0  0  0999 V2000
    0.6728   12.4033  -17.8580 C   0  0  0  0  0  0  0  0  0  0  0  0
   -0.4826   12.1247  -18.6377 O   0  0  0  0  0  0  0  0  0  0  0  0
   -1.6635   12.0784  -17.8336 C   0  0  0  0  0  0  0  0  0  0  0  0
   -2.9118   12.3499  -18.7013 C   0  0  2  0  0  0  0  0  0  0  0  0
   -2.8438   13.7663  -19.2619 C   0  0  0  0  0  0  0  0  0  0  0  0
   -3.1306   14.8583  -18.4288 C   0  0  0  0  0  0  0  0  0  0  0  0
   -3.0768   16.1631  -18.9220 C   0  0  0  0  0  0  0  0  0  0  0  0
   -2.7373   16.3933  -20.2530 C   0  0  0  0  0  0  0  0  0  0  0  0
   -2.4513   15.3191  -21.0924 C   0  0  0  0  0  0  0  0  0  0  0  0
   -2.5046   14.0133  -20.6016 C   0  0  0  0  0  0  0  0  0  0  0  0
   -4.2383   12.0972  -17.9402 C   0  0  2  0  0  0  0  0  0  0  0  0
   -4.2326   10.8579  -17.0392 C   0  0  0  0  0  0  0  0  0  0  0  0
   -5.6909   10.4016  -16.9311 C   0  0  0  0  0  0  0  0  0  0  0  0
   -6.4978   11.2794  -17.8916 C   0  0  2  0  0  0  0  0  0  0  0  0
   -7.6407   10.5838  -18.6511 C   0  0  0  0  0  0  0  0  0  0  0  0
   -9.0705   10.5855  -18.0095 C   0  0  0  0  0  0  0  0  0  0  0  0
   -9.9040    9.4280  -18.5963 C   0  0  0  0  0  0  0  0  0  0  0  0
   -8.8676   10.3027  -16.4991 C   0  0  0  0  0  0  0  0  0  0  0  0
   -9.8143   11.9446  -18.2030 C   0  0  1  0  0  0  0  0  0  0  0  0
   -9.1107   13.1654  -17.6092 C   0  0  0  0  0  0  0  0  0  0  0  0
  -10.0049   12.2307  -19.5897 O   0  0  0  0  0  0  0  0  0  0  0  0
   -5.4332   11.8161  -18.8574 C   0  0  0  0  0  0  0  0  0  0  0  0
  1  2  1  0
  2  3  1  0
  4  3  1  1
  4  5  1  0
  5  6  2  0
  6  7  1  0
  7  8  2  0
  8  9  1  0
  9 10  2  0
  4 11  1  0
 11 12  1  1
 12 13  1  0
 13 14  1  0
 14 15  1  6
 15 16  1  0
 16 17  1  0
 16 18  1  0
 16 19  1  0
 19 20  1  6
 19 21  1  0
 14 22  1  0
 10  5  1  0
 22 11  1  0
M  END
>  <CHROM.0>  (25) 
30.00310758,-64.75401154,-61.88951099,114.58982197,-80.50436102,-80.90097553
178.44373821,177.35046113,-70.66329912,-171.88426476,-60.20093958

>  <CHROM.1>  (25) 
157.06852665,-63.88089890,-76.08031959,-40.48999974,91.06204137,-158.08411268
-59.41713059,172.23551892,-5.13340812,12.40822764,-18.49909152,-0.36848127
0.06547825,2.64177186

>  <Name>  (25) 
denovo_401

>  <RI>  (25) 
-5.35378e+08

>  <Rbt.Current_Directory>  (25) 
/tmp/claude-0/-home-user-Rare-cancers/1af35c7f-7dc4-53ce-91d2-1631a2a10a85/scratchpad/smwork/cross/dock_8XTT-model20

>  <Rbt.Executable>  (25) 
rbdock - v25.07-alpha

>  <Rbt.Library>  (25) 
libRbt.so (25.07, Buildalpha)

>  <Rbt.Parameter_File>  (25) 
/tmp/claude-0/-home-user-Rare-cancers/1af35c7f-7dc4-53ce-91d2-1631a2a10a85/scratchpad/rdroot/share/rDock/data/scripts/dock.prm

>  <Rbt.Receptor>  (25) 
rec.prm

>  <SCORE>  (25) 
-3.2572

>  <SCORE.INTER>  (25) 
-2.30489

>  <SCORE.INTER.CONST>  (25) 
1

>  <SCORE.INTER.POLAR>  (25) 
0

>  <SCORE.INTER.REPUL>  (25) 
0.0155989

>  <SCORE.INTER.ROT>  (25) 
7

>  <SCORE.INTER.VDW>  (25) 
-14.7829

>  <SCORE.INTER.norm>  (25) 
-0.104768

>  <SCORE.INTRA>  (25) 
5.12106

>  <SCORE.INTRA.DIHEDRAL>  (25) 
6.30697

>  <SCORE.INTRA.DIHEDRAL.0>  (25) 
3.78927

>  <SCORE.INTRA.POLAR>  (25) 
0

>  <SCORE.INTRA.POLAR.0>  (25) 
0

>  <SCORE.INTRA.REPUL>  (25) 
0

>  <SCORE.INTRA.REPUL.0>  (25) 
0

>  <SCORE.INTRA.VDW>  (25) 
1.96757

>  <SCORE.INTRA.VDW.0>  (25) 
1.02728

>  <SCORE.INTRA.norm>  (25) 
0.232775

>  <SCORE.RESTR>  (25) 
0.00569096

>  <SCORE.RESTR.CAVITY>  (25) 
0.00569096

>  <SCORE.RESTR.norm>  (25) 
0.00025868

>  <SCORE.SYSTEM>  (25) 
-6.07906

>  <SCORE.SYSTEM.CONST>  (25) 
0

>  <SCORE.SYSTEM.DIHEDRAL>  (25) 
13.0823

>  <SCORE.SYSTEM.POLAR>  (25) 
-2.3514

>  <SCORE.SYSTEM.REPUL>  (25) 
0.0421109

>  <SCORE.SYSTEM.VDW>  (25) 
-4.83602

>  <SCORE.SYSTEM.norm>  (25) 
-0.276321

>  <SCORE.heavy>  (25) 
22

>  <SCORE.norm>  (25) 
-0.148054

$$$$
denovo_401
     RDKit          3D

 22 23  0  0  0  0  0  0  0  0999 V2000
    0.0937   13.6244  -18.4297 C   0  0  0  0  0  0  0  0  0  0  0  0
   -0.3257   12.2668  -18.4669 O   0  0  0  0  0  0  0  0  0  0  0  0
   -1.3803   12.0143  -17.5355 C   0  0  0  0  0  0  0  0  0  0  0  0
   -2.7521   12.2445  -18.2063 C   0  0  2  0  0  0  0  0  0  0  0  0
   -3.0134   13.7417  -18.3300 C   0  0  0  0  0  0  0  0  0  0  0  0
   -2.8356   14.5730  -17.2137 C   0  0  0  0  0  0  0  0  0  0  0  0
   -3.0716   15.9459  -17.3039 C   0  0  0  0  0  0  0  0  0  0  0  0
   -3.4890   16.5050  -18.5094 C   0  0  0  0  0  0  0  0  0  0  0  0
   -3.6710   15.6922  -19.6258 C   0  0  0  0  0  0  0  0  0  0  0  0
   -3.4359   14.3189  -19.5379 C   0  0  0  0  0  0  0  0  0  0  0  0
   -3.9085   11.5190  -17.4719 C   0  0  2  0  0  0  0  0  0  0  0  0
   -3.6420   10.0426  -17.1609 C   0  0  0  0  0  0  0  0  0  0  0  0
   -5.0149    9.3670  -17.0869 C   0  0  0  0  0  0  0  0  0  0  0  0
   -6.0446   10.4181  -17.5101 C   0  0  2  0  0  0  0  0  0  0  0  0
   -7.2260    9.9109  -18.3550 C   0  0  0  0  0  0  0  0  0  0  0  0
   -8.6243   10.5927  -18.1650 C   0  0  0  0  0  0  0  0  0  0  0  0
   -9.7431    9.5772  -18.4745 C   0  0  0  0  0  0  0  0  0  0  0  0
   -8.7249   10.9629  -16.6633 C   0  0  0  0  0  0  0  0  0  0  0  0
   -8.7928   11.8728  -19.0429 C   0  0  1  0  0  0  0  0  0  0  0  0
  -10.1135   12.6215  -18.8607 C   0  0  0  0  0  0  0  0  0  0  0  0
   -7.7580   12.8195  -18.7713 O   0  0  0  0  0  0  0  0  0  0  0  0
   -5.2050   11.4422  -18.2851 C   0  0  0  0  0  0  0  0  0  0  0  0
  1  2  1  0
  2  3  1  0
  4  3  1  1
  4  5  1  0
  5  6  2  0
  6  7  1  0
  7  8  2  0
  8  9  1  0
  9 10  2  0
  4 11  1  0
 11 12  1  6
 12 13  1  0
 13 14  1  0
 14 15  1  6
 15 16  1  0
 16 17  1  0
 16 18  1  0
 16 19  1  0
 19 20  1  1
 19 21  1  0
 14 22  1  0
 10  5  1  0
 22 11  1  0
M  END
>  <CHROM.0>  (26) 
-164.78249531,-179.66687177,-60.87626812,112.79681957,-176.91564514,48.84495011
177.33942053,-175.16407528,-173.92398063,67.25401715,61.74181909

>  <CHROM.1>  (26) 
90.21381661,-75.89992183,-49.18877432,-49.16106761,146.10932316,-150.96418376
-177.49065871,170.89876896,-4.97645068,12.32783076,-18.14139747,-0.40038828
0.09266658,2.91642054

>  <Name>  (26) 
denovo_401

>  <RI>  (26) 
-5.35378e+08

>  <Rbt.Current_Directory>  (26) 
/tmp/claude-0/-home-user-Rare-cancers/1af35c7f-7dc4-53ce-91d2-1631a2a10a85/scratchpad/smwork/cross/dock_8XTT-model20

>  <Rbt.Executable>  (26) 
rbdock - v25.07-alpha

>  <Rbt.Library>  (26) 
libRbt.so (25.07, Buildalpha)

>  <Rbt.Parameter_File>  (26) 
/tmp/claude-0/-home-user-Rare-cancers/1af35c7f-7dc4-53ce-91d2-1631a2a10a85/scratchpad/rdroot/share/rDock/data/scripts/dock.prm

>  <Rbt.Receptor>  (26) 
rec.prm

>  <SCORE>  (26) 
-2.8459

>  <SCORE.INTER>  (26) 
-5.77196

>  <SCORE.INTER.CONST>  (26) 
1

>  <SCORE.INTER.POLAR>  (26) 
0

>  <SCORE.INTER.REPUL>  (26) 
0

>  <SCORE.INTER.ROT>  (26) 
7

>  <SCORE.INTER.VDW>  (26) 
-18.172

>  <SCORE.INTER.norm>  (26) 
-0.262362

>  <SCORE.INTRA>  (26) 
7.72851

>  <SCORE.INTRA.DIHEDRAL>  (26) 
9.26397

>  <SCORE.INTRA.DIHEDRAL.0>  (26) 
3.78927

>  <SCORE.INTRA.POLAR>  (26) 
0

>  <SCORE.INTRA.POLAR.0>  (26) 
0

>  <SCORE.INTRA.REPUL>  (26) 
0

>  <SCORE.INTRA.REPUL.0>  (26) 
0

>  <SCORE.INTRA.VDW>  (26) 
3.09652

>  <SCORE.INTRA.VDW.0>  (26) 
1.02728

>  <SCORE.INTRA.norm>  (26) 
0.351296

>  <SCORE.RESTR>  (26) 
0

>  <SCORE.RESTR.CAVITY>  (26) 
0

>  <SCORE.RESTR.norm>  (26) 
0

>  <SCORE.SYSTEM>  (26) 
-4.80244

>  <SCORE.SYSTEM.CONST>  (26) 
0

>  <SCORE.SYSTEM.DIHEDRAL>  (26) 
8.51987

>  <SCORE.SYSTEM.POLAR>  (26) 
-1.6297

>  <SCORE.SYSTEM.REPUL>  (26) 
0.107622

>  <SCORE.SYSTEM.VDW>  (26) 
-4.0595

>  <SCORE.SYSTEM.norm>  (26) 
-0.218293

>  <SCORE.heavy>  (26) 
22

>  <SCORE.norm>  (26) 
-0.129359

$$$$
denovo_401
     RDKit          3D

 22 23  0  0  0  0  0  0  0  0999 V2000
   -0.3292   15.1637  -16.0026 C   0  0  0  0  0  0  0  0  0  0  0  0
   -0.6910   13.7915  -16.0847 O   0  0  0  0  0  0  0  0  0  0  0  0
   -1.0323   13.4145  -17.4206 C   0  0  0  0  0  0  0  0  0  0  0  0
   -1.3660   11.9079  -17.4820 C   0  0  2  0  0  0  0  0  0  0  0  0
   -1.2039   11.4086  -18.9136 C   0  0  0  0  0  0  0  0  0  0  0  0
   -1.8118   12.1083  -19.9670 C   0  0  0  0  0  0  0  0  0  0  0  0
   -1.6785   11.6674  -21.2847 C   0  0  0  0  0  0  0  0  0  0  0  0
   -0.9377   10.5220  -21.5665 C   0  0  0  0  0  0  0  0  0  0  0  0
   -0.3295    9.8163  -20.5310 C   0  0  0  0  0  0  0  0  0  0  0  0
   -0.4616   10.2551  -19.2123 C   0  0  0  0  0  0  0  0  0  0  0  0
   -2.7715   11.5810  -16.9160 C   0  0  2  0  0  0  0  0  0  0  0  0
   -3.0903   10.0854  -16.8198 C   0  0  0  0  0  0  0  0  0  0  0  0
   -4.6151    9.9671  -16.9078 C   0  0  0  0  0  0  0  0  0  0  0  0
   -5.1473   11.3701  -17.2119 C   0  0  2  0  0  0  0  0  0  0  0  0
   -6.3454   11.4491  -18.1737 C   0  0  0  0  0  0  0  0  0  0  0  0
   -7.7787   11.1750  -17.6022 C   0  0  0  0  0  0  0  0  0  0  0  0
   -8.8320   11.4261  -18.7004 C   0  0  0  0  0  0  0  0  0  0  0  0
   -7.8206    9.6677  -17.2435 C   0  0  0  0  0  0  0  0  0  0  0  0
   -8.0955   12.0339  -16.3373 C   0  0  1  0  0  0  0  0  0  0  0  0
   -9.5017   11.8585  -15.7633 C   0  0  0  0  0  0  0  0  0  0  0  0
   -7.1909   11.7313  -15.2737 O   0  0  0  0  0  0  0  0  0  0  0  0
   -3.9230   12.0947  -17.7867 C   0  0  0  0  0  0  0  0  0  0  0  0
  1  2  1  0
  2  3  1  0
  4  3  1  6
  4  5  1  0
  5  6  2  0
  6  7  1  0
  7  8  2  0
  8  9  1  0
  9 10  2  0
  4 11  1  0
 11 12  1  6
 12 13  1  0
 13 14  1  0
 14 15  1  6
 15 16  1  0
 16 17  1  0
 16 18  1  0
 16 19  1  0
 19 20  1  1
 19 21  1  0
 14 22  1  0
 10  5  1  0
 22 11  1  0
M  END
>  <CHROM.0>  (27) 
19.64820522,61.81086415,104.16541862,-65.30252538,-175.27320525,-152.25778178
56.40662050,-177.36200309,-179.35720434,-60.93537542,63.40340057

>  <CHROM.1>  (27) 
177.79659236,-158.50823315,-49.80642715,-173.90496012,80.90238653,175.10003941
177.51494609,177.87702411,-3.94272134,11.60508942,-17.78368092,-0.17151250
0.23095444,0.95391658

>  <Name>  (27) 
denovo_401

>  <RI>  (27) 
-5.35378e+08

>  <Rbt.Current_Directory>  (27) 
/tmp/claude-0/-home-user-Rare-cancers/1af35c7f-7dc4-53ce-91d2-1631a2a10a85/scratchpad/smwork/cross/dock_8XTT-model20

>  <Rbt.Executable>  (27) 
rbdock - v25.07-alpha

>  <Rbt.Library>  (27) 
libRbt.so (25.07, Buildalpha)

>  <Rbt.Parameter_File>  (27) 
/tmp/claude-0/-home-user-Rare-cancers/1af35c7f-7dc4-53ce-91d2-1631a2a10a85/scratchpad/rdroot/share/rDock/data/scripts/dock.prm

>  <Rbt.Receptor>  (27) 
rec.prm

>  <SCORE>  (27) 
-2.3265

>  <SCORE.INTER>  (27) 
-4.82411

>  <SCORE.INTER.CONST>  (27) 
1

>  <SCORE.INTER.POLAR>  (27) 
0

>  <SCORE.INTER.REPUL>  (27) 
0

>  <SCORE.INTER.ROT>  (27) 
7

>  <SCORE.INTER.VDW>  (27) 
-17.2241

>  <SCORE.INTER.norm>  (27) 
-0.219278

>  <SCORE.INTRA>  (27) 
2.42611

>  <SCORE.INTRA.DIHEDRAL>  (27) 
0.968734

>  <SCORE.INTRA.DIHEDRAL.0>  (27) 
3.78927

>  <SCORE.INTRA.POLAR>  (27) 
0

>  <SCORE.INTRA.POLAR.0>  (27) 
0

>  <SCORE.INTRA.REPUL>  (27) 
0

>  <SCORE.INTRA.REPUL.0>  (27) 
0

>  <SCORE.INTRA.VDW>  (27) 
1.94174

>  <SCORE.INTRA.VDW.0>  (27) 
1.02728

>  <SCORE.INTRA.norm>  (27) 
0.110278

>  <SCORE.RESTR>  (27) 
0.0213668

>  <SCORE.RESTR.CAVITY>  (27) 
0.0213668

>  <SCORE.RESTR.norm>  (27) 
0.00097122

>  <SCORE.SYSTEM>  (27) 
0.0501253

>  <SCORE.SYSTEM.CONST>  (27) 
0

>  <SCORE.SYSTEM.DIHEDRAL>  (27) 
10.1335

>  <SCORE.SYSTEM.POLAR>  (27) 
-0.615001

>  <SCORE.SYSTEM.REPUL>  (27) 
0.390451

>  <SCORE.SYSTEM.VDW>  (27) 
-4.87786

>  <SCORE.SYSTEM.norm>  (27) 
0.00227842

>  <SCORE.heavy>  (27) 
22

>  <SCORE.norm>  (27) 
-0.10575

$$$$
denovo_401
     RDKit          3D

 22 23  0  0  0  0  0  0  0  0999 V2000
  -10.0215    8.6204  -19.0203 C   0  0  0  0  0  0  0  0  0  0  0  0
   -9.0115    9.5378  -18.6222 O   0  0  0  0  0  0  0  0  0  0  0  0
   -8.3680    9.1234  -17.4149 C   0  0  0  0  0  0  0  0  0  0  0  0
   -7.4714   10.2571  -16.8708 C   0  0  2  0  0  0  0  0  0  0  0  0
   -8.2858   11.5415  -16.7602 C   0  0  0  0  0  0  0  0  0  0  0  0
   -8.5947   12.0619  -15.4942 C   0  0  0  0  0  0  0  0  0  0  0  0
   -9.3411   13.2349  -15.3698 C   0  0  0  0  0  0  0  0  0  0  0  0
   -9.7891   13.9017  -16.5076 C   0  0  0  0  0  0  0  0  0  0  0  0
   -9.4915   13.3963  -17.7710 C   0  0  0  0  0  0  0  0  0  0  0  0
   -8.7453   12.2232  -17.8980 C   0  0  0  0  0  0  0  0  0  0  0  0
   -6.1869   10.4630  -17.7136 C   0  0  2  0  0  0  0  0  0  0  0  0
   -5.3738    9.1883  -17.9622 C   0  0  0  0  0  0  0  0  0  0  0  0
   -3.9254    9.6399  -18.1738 C   0  0  0  0  0  0  0  0  0  0  0  0
   -3.8886   11.1438  -17.8894 C   0  0  2  0  0  0  0  0  0  0  0  0
   -2.6341   11.6693  -17.1704 C   0  0  0  0  0  0  0  0  0  0  0  0
   -1.3290   11.8841  -18.0109 C   0  0  0  0  0  0  0  0  0  0  0  0
   -0.1987   12.3932  -17.0933 C   0  0  0  0  0  0  0  0  0  0  0  0
   -0.9170   10.4851  -18.5358 C   0  0  0  0  0  0  0  0  0  0  0  0
   -1.5402   12.8629  -19.2089 C   0  0  1  0  0  0  0  0  0  0  0  0
   -1.8980   14.2990  -18.8247 C   0  0  0  0  0  0  0  0  0  0  0  0
   -0.3630   12.9479  -20.0139 O   0  0  0  0  0  0  0  0  0  0  0  0
   -5.1505   11.3744  -17.0477 C   0  0  0  0  0  0  0  0  0  0  0  0
  1  2  1  0
  2  3  1  0
  4  3  1  6
  4  5  1  0
  5  6  2  0
  6  7  1  0
  7  8  2  0
  8  9  1  0
  9 10  2  0
  4 11  1  0
 11 12  1  1
 12 13  1  0
 13 14  1  0
 14 15  1  1
 15 16  1  0
 16 17  1  0
 16 18  1  0
 16 19  1  0
 19 20  1  1
 19 21  1  0
 14 22  1  0
 10  5  1  0
 22 11  1  0
M  END
>  <CHROM.0>  (28) 
-162.53527061,-177.74073848,174.20635600,115.36928347,-76.41524318,50.69831832
-178.91791463,32.99046843,-70.26673771,-61.56443590,177.88568139

>  <CHROM.1>  (28) 
-169.47181705,52.46715963,111.25983972,-51.51651081,78.67990683,-179.23082577
64.02238363,-177.56429847,-5.47128270,11.44550903,-17.75791467,-3.06040303
0.18287664,0.26717980

>  <Name>  (28) 
denovo_401

>  <RI>  (28) 
-5.35378e+08

>  <Rbt.Current_Directory>  (28) 
/tmp/claude-0/-home-user-Rare-cancers/1af35c7f-7dc4-53ce-91d2-1631a2a10a85/scratchpad/smwork/cross/dock_8XTT-model20

>  <Rbt.Executable>  (28) 
rbdock - v25.07-alpha

>  <Rbt.Library>  (28) 
libRbt.so (25.07, Buildalpha)

>  <Rbt.Parameter_File>  (28) 
/tmp/claude-0/-home-user-Rare-cancers/1af35c7f-7dc4-53ce-91d2-1631a2a10a85/scratchpad/rdroot/share/rDock/data/scripts/dock.prm

>  <Rbt.Receptor>  (28) 
rec.prm

>  <SCORE>  (28) 
-2.1552

>  <SCORE.INTER>  (28) 
-7.80122

>  <SCORE.INTER.CONST>  (28) 
1

>  <SCORE.INTER.POLAR>  (28) 
0

>  <SCORE.INTER.REPUL>  (28) 
0.0505683

>  <SCORE.INTER.ROT>  (28) 
7

>  <SCORE.INTER.VDW>  (28) 
-20.4541

>  <SCORE.INTER.norm>  (28) 
-0.354601

>  <SCORE.INTRA>  (28) 
1.29457

>  <SCORE.INTRA.DIHEDRAL>  (28) 
-0.28483

>  <SCORE.INTRA.DIHEDRAL.0>  (28) 
3.78927

>  <SCORE.INTRA.POLAR>  (28) 
0

>  <SCORE.INTRA.POLAR.0>  (28) 
0

>  <SCORE.INTRA.REPUL>  (28) 
0

>  <SCORE.INTRA.REPUL.0>  (28) 
0

>  <SCORE.INTRA.VDW>  (28) 
1.43698

>  <SCORE.INTRA.VDW.0>  (28) 
1.02728

>  <SCORE.INTRA.norm>  (28) 
0.0588439

>  <SCORE.RESTR>  (28) 
0.0519373

>  <SCORE.RESTR.CAVITY>  (28) 
0.0519373

>  <SCORE.RESTR.norm>  (28) 
0.00236079

>  <SCORE.SYSTEM>  (28) 
4.29952

>  <SCORE.SYSTEM.CONST>  (28) 
0

>  <SCORE.SYSTEM.DIHEDRAL>  (28) 
12.9635

>  <SCORE.SYSTEM.POLAR>  (28) 
-1.66136

>  <SCORE.SYSTEM.REPUL>  (28) 
0.0414197

>  <SCORE.SYSTEM.VDW>  (28) 
3.25927

>  <SCORE.SYSTEM.norm>  (28) 
0.195433

>  <SCORE.heavy>  (28) 
22

>  <SCORE.norm>  (28) 
-0.0979637

$$$$
denovo_401
     RDKit          3D

 22 23  0  0  0  0  0  0  0  0999 V2000
   -3.6072    8.6783  -21.2277 C   0  0  0  0  0  0  0  0  0  0  0  0
   -3.8218    9.9392  -20.6077 O   0  0  0  0  0  0  0  0  0  0  0  0
   -2.7086   10.3261  -19.7988 C   0  0  0  0  0  0  0  0  0  0  0  0
   -2.9472   11.7281  -19.1966 C   0  0  2  0  0  0  0  0  0  0  0  0
   -1.7356   12.1385  -18.3667 C   0  0  0  0  0  0  0  0  0  0  0  0
   -1.7008   11.8450  -16.9951 C   0  0  0  0  0  0  0  0  0  0  0  0
   -0.6028   12.2139  -16.2160 C   0  0  0  0  0  0  0  0  0  0  0  0
    0.4730   12.8812  -16.7968 C   0  0  0  0  0  0  0  0  0  0  0  0
    0.4521   13.1806  -18.1570 C   0  0  0  0  0  0  0  0  0  0  0  0
   -0.6450   12.8129  -18.9381 C   0  0  0  0  0  0  0  0  0  0  0  0
   -4.2599   11.8136  -18.3768 C   0  0  2  0  0  0  0  0  0  0  0  0
   -4.6058   10.5457  -17.5890 C   0  0  0  0  0  0  0  0  0  0  0  0
   -6.1291   10.5451  -17.4277 C   0  0  0  0  0  0  0  0  0  0  0  0
   -6.6584   11.7199  -18.2547 C   0  0  2  0  0  0  0  0  0  0  0  0
   -7.9855   11.4856  -18.9968 C   0  0  0  0  0  0  0  0  0  0  0  0
   -9.3248   11.6732  -18.2049 C   0  0  0  0  0  0  0  0  0  0  0  0
   -9.1900   12.8619  -17.2315 C   0  0  0  0  0  0  0  0  0  0  0  0
  -10.4013   12.0439  -19.2566 C   0  0  0  0  0  0  0  0  0  0  0  0
   -9.7528   10.3844  -17.4343 C   0  0  1  0  0  0  0  0  0  0  0  0
   -9.9701    9.1450  -18.3030 C   0  0  0  0  0  0  0  0  0  0  0  0
   -8.7724   10.0210  -16.4607 O   0  0  0  0  0  0  0  0  0  0  0  0
   -5.5140   12.0038  -19.2365 C   0  0  0  0  0  0  0  0  0  0  0  0
  1  2  1  0
  2  3  1  0
  4  3  1  1
  4  5  1  0
  5  6  2  0
  6  7  1  0
  7  8  2  0
  8  9  1  0
  9 10  2  0
  4 11  1  0
 11 12  1  6
 12 13  1  0
 13 14  1  0
 14 15  1  6
 15 16  1  0
 16 17  1  0
 16 18  1  0
 16 19  1  0
 19 20  1  6
 19 21  1  0
 14 22  1  0
 10  5  1  0
 22 11  1  0
M  END
>  <CHROM.0>  (29) 
-160.05746117,60.89547951,69.15890116,77.95134448,-173.96615920,49.00081489
169.00968258,-55.04962641,69.20324264,-60.99095086,63.56069179

>  <CHROM.1>  (29) 
177.28276761,-178.56971738,-91.53978861,36.04414882,83.03887541,37.52938444
-59.20136623,62.45369800,-5.10247939,11.30594911,-18.34046816,-0.06959266
-0.11419285,-2.22141866

>  <Name>  (29) 
denovo_401

>  <RI>  (29) 
-5.35378e+08

>  <Rbt.Current_Directory>  (29) 
/tmp/claude-0/-home-user-Rare-cancers/1af35c7f-7dc4-53ce-91d2-1631a2a10a85/scratchpad/smwork/cross/dock_8XTT-model20

>  <Rbt.Executable>  (29) 
rbdock - v25.07-alpha

>  <Rbt.Library>  (29) 
libRbt.so (25.07, Buildalpha)

>  <Rbt.Parameter_File>  (29) 
/tmp/claude-0/-home-user-Rare-cancers/1af35c7f-7dc4-53ce-91d2-1631a2a10a85/scratchpad/rdroot/share/rDock/data/scripts/dock.prm

>  <Rbt.Receptor>  (29) 
rec.prm

>  <SCORE>  (29) 
-2.0353

>  <SCORE.INTER>  (29) 
-4.2072

>  <SCORE.INTER.CONST>  (29) 
1

>  <SCORE.INTER.POLAR>  (29) 
0

>  <SCORE.INTER.REPUL>  (29) 
0

>  <SCORE.INTER.ROT>  (29) 
7

>  <SCORE.INTER.VDW>  (29) 
-16.6072

>  <SCORE.INTER.norm>  (29) 
-0.191236

>  <SCORE.INTRA>  (29) 
3.38548

>  <SCORE.INTRA.DIHEDRAL>  (29) 
3.81292

>  <SCORE.INTRA.DIHEDRAL.0>  (29) 
3.78927

>  <SCORE.INTRA.POLAR>  (29) 
0

>  <SCORE.INTRA.POLAR.0>  (29) 
0

>  <SCORE.INTRA.REPUL>  (29) 
0

>  <SCORE.INTRA.REPUL.0>  (29) 
0

>  <SCORE.INTRA.VDW>  (29) 
1.47902

>  <SCORE.INTRA.VDW.0>  (29) 
1.02728

>  <SCORE.INTRA.norm>  (29) 
0.153885

>  <SCORE.RESTR>  (29) 
0.152424

>  <SCORE.RESTR.CAVITY>  (29) 
0.152424

>  <SCORE.RESTR.norm>  (29) 
0.00692835

>  <SCORE.SYSTEM>  (29) 
-1.36602

>  <SCORE.SYSTEM.CONST>  (29) 
0

>  <SCORE.SYSTEM.DIHEDRAL>  (29) 
4.10191

>  <SCORE.SYSTEM.POLAR>  (29) 
-1.12885

>  <SCORE.SYSTEM.REPUL>  (29) 
0.752495

>  <SCORE.SYSTEM.VDW>  (29) 
-3.34137

>  <SCORE.SYSTEM.norm>  (29) 
-0.0620919

>  <SCORE.heavy>  (29) 
22

>  <SCORE.norm>  (29) 
-0.0925145

$$$$
denovo_401
     RDKit          3D

 22 23  0  0  0  0  0  0  0  0999 V2000
   -9.2655   12.5327  -14.9138 C   0  0  0  0  0  0  0  0  0  0  0  0
   -7.8790   12.8349  -14.9950 O   0  0  0  0  0  0  0  0  0  0  0  0
   -7.1351   11.7532  -15.5607 C   0  0  0  0  0  0  0  0  0  0  0  0
   -7.1519   11.8418  -17.1024 C   0  0  2  0  0  0  0  0  0  0  0  0
   -8.5487   11.5101  -17.6162 C   0  0  0  0  0  0  0  0  0  0  0  0
   -9.0777   10.2265  -17.4127 C   0  0  0  0  0  0  0  0  0  0  0  0
  -10.3532    9.9006  -17.8769 C   0  0  0  0  0  0  0  0  0  0  0  0
  -11.1154   10.8519  -18.5508 C   0  0  0  0  0  0  0  0  0  0  0  0
  -10.6030   12.1299  -18.7615 C   0  0  0  0  0  0  0  0  0  0  0  0
   -9.3276   12.4581  -18.2984 C   0  0  0  0  0  0  0  0  0  0  0  0
   -6.0701   10.9522  -17.7664 C   0  0  2  0  0  0  0  0  0  0  0  0
   -5.9279    9.5544  -17.1552 C   0  0  0  0  0  0  0  0  0  0  0  0
   -4.4861    9.1139  -17.4267 C   0  0  0  0  0  0  0  0  0  0  0  0
   -3.7692   10.3164  -18.0465 C   0  0  2  0  0  0  0  0  0  0  0  0
   -2.3056   10.5280  -17.6225 C   0  0  0  0  0  0  0  0  0  0  0  0
   -1.3607   11.3296  -18.5821 C   0  0  0  0  0  0  0  0  0  0  0  0
   -1.3415   10.6589  -19.9708 C   0  0  0  0  0  0  0  0  0  0  0  0
   -1.9982   12.7330  -18.7444 C   0  0  0  0  0  0  0  0  0  0  0  0
    0.0906   11.4639  -18.0222 C   0  0  1  0  0  0  0  0  0  0  0  0
    1.0825   12.1781  -18.9409 C   0  0  0  0  0  0  0  0  0  0  0  0
    0.0987   12.1863  -16.7896 O   0  0  0  0  0  0  0  0  0  0  0  0
   -4.6470   11.5037  -17.6292 C   0  0  0  0  0  0  0  0  0  0  0  0
  1  2  1  0
  2  3  1  0
  4  3  1  1
  4  5  1  0
  5  6  2  0
  6  7  1  0
  7  8  2  0
  8  9  1  0
  9 10  2  0
  4 11  1  0
 11 12  1  1
 12 13  1  0
 13 14  1  0
 14 15  1  1
 15 16  1  0
 16 17  1  0
 16 18  1  0
 16 19  1  0
 19 20  1  6
 19 21  1  0
 14 22  1  0
 10  5  1  0
 22 11  1  0
M  END
>  <CHROM.0>  (30) 
-158.48494018,-56.97897286,-62.61866423,-64.83721621,-76.91100139,51.29265282
175.58826022,-56.00375203,-73.22919961,67.26765793,-176.44675299

>  <CHROM.1>  (30) 
85.44663155,-70.56611385,-64.03019949,42.95879818,156.14774561,-56.61237979
177.19463474,63.10831860,-5.37984987,11.32819243,-17.58916268,-3.04576743
-0.07083133,-2.13880739

>  <Name>  (30) 
denovo_401

>  <RI>  (30) 
-5.35378e+08

>  <Rbt.Current_Directory>  (30) 
/tmp/claude-0/-home-user-Rare-cancers/1af35c7f-7dc4-53ce-91d2-1631a2a10a85/scratchpad/smwork/cross/dock_8XTT-model20

>  <Rbt.Executable>  (30) 
rbdock - v25.07-alpha

>  <Rbt.Library>  (30) 
libRbt.so (25.07, Buildalpha)

>  <Rbt.Parameter_File>  (30) 
/tmp/claude-0/-home-user-Rare-cancers/1af35c7f-7dc4-53ce-91d2-1631a2a10a85/scratchpad/rdroot/share/rDock/data/scripts/dock.prm

>  <Rbt.Receptor>  (30) 
rec.prm

>  <SCORE>  (30) 
-1.0742

>  <SCORE.INTER>  (30) 
-6.0622

>  <SCORE.INTER.CONST>  (30) 
1

>  <SCORE.INTER.POLAR>  (30) 
0

>  <SCORE.INTER.REPUL>  (30) 
0

>  <SCORE.INTER.ROT>  (30) 
7

>  <SCORE.INTER.VDW>  (30) 
-18.4622

>  <SCORE.INTER.norm>  (30) 
-0.275555

>  <SCORE.INTRA>  (30) 
5.4129

>  <SCORE.INTRA.DIHEDRAL>  (30) 
3.73522

>  <SCORE.INTRA.DIHEDRAL.0>  (30) 
3.78927

>  <SCORE.INTRA.POLAR>  (30) 
0

>  <SCORE.INTRA.POLAR.0>  (30) 
0

>  <SCORE.INTRA.REPUL>  (30) 
0

>  <SCORE.INTRA.REPUL.0>  (30) 
0

>  <SCORE.INTRA.VDW>  (30) 
3.54529

>  <SCORE.INTRA.VDW.0>  (30) 
1.02728

>  <SCORE.INTRA.norm>  (30) 
0.246041

>  <SCORE.RESTR>  (30) 
0

>  <SCORE.RESTR.CAVITY>  (30) 
0

>  <SCORE.RESTR.norm>  (30) 
0

>  <SCORE.SYSTEM>  (30) 
-0.424881

>  <SCORE.SYSTEM.CONST>  (30) 
0

>  <SCORE.SYSTEM.DIHEDRAL>  (30) 
3.79181

>  <SCORE.SYSTEM.POLAR>  (30) 
-0.55038

>  <SCORE.SYSTEM.REPUL>  (30) 
0.347579

>  <SCORE.SYSTEM.VDW>  (30) 
-2.18739

>  <SCORE.SYSTEM.norm>  (30) 
-0.0193128

>  <SCORE.heavy>  (30) 
22

>  <SCORE.norm>  (30) 
-0.0488263

$$$$
denovo_401
     RDKit          3D

 22 23  0  0  0  0  0  0  0  0999 V2000
   -5.2872    6.8146  -19.6205 C   0  0  0  0  0  0  0  0  0  0  0  0
   -4.8298    7.9850  -18.9560 O   0  0  0  0  0  0  0  0  0  0  0  0
   -5.9047    8.8811  -18.6650 C   0  0  0  0  0  0  0  0  0  0  0  0
   -5.3586   10.1905  -18.0548 C   0  0  2  0  0  0  0  0  0  0  0  0
   -6.5213   11.0508  -17.5721 C   0  0  0  0  0  0  0  0  0  0  0  0
   -6.6494   11.3433  -16.2057 C   0  0  0  0  0  0  0  0  0  0  0  0
   -7.7075   12.1267  -15.7417 C   0  0  0  0  0  0  0  0  0  0  0  0
   -8.6510   12.6266  -16.6361 C   0  0  0  0  0  0  0  0  0  0  0  0
   -8.5377   12.3436  -17.9953 C   0  0  0  0  0  0  0  0  0  0  0  0
   -7.4805   11.5600  -18.4616 C   0  0  0  0  0  0  0  0  0  0  0  0
   -4.4357   10.9670  -19.0284 C   0  0  2  0  0  0  0  0  0  0  0  0
   -3.2116   10.1826  -19.5120 C   0  0  0  0  0  0  0  0  0  0  0  0
   -2.1449   11.2260  -19.8583 C   0  0  0  0  0  0  0  0  0  0  0  0
   -2.7023   12.5842  -19.4239 C   0  0  2  0  0  0  0  0  0  0  0  0
   -1.6901   13.5728  -18.8197 C   0  0  0  0  0  0  0  0  0  0  0  0
   -1.8211   15.0906  -19.1873 C   0  0  0  0  0  0  0  0  0  0  0  0
   -2.9704   15.7235  -18.3765 C   0  0  0  0  0  0  0  0  0  0  0  0
   -0.4990   15.7612  -18.7349 C   0  0  0  0  0  0  0  0  0  0  0  0
   -2.0413   15.3218  -20.7156 C   0  0  1  0  0  0  0  0  0  0  0  0
   -2.1376   16.7852  -21.1484 C   0  0  0  0  0  0  0  0  0  0  0  0
   -0.9769   14.7505  -21.4782 O   0  0  0  0  0  0  0  0  0  0  0  0
   -3.7898   12.2104  -18.4080 C   0  0  0  0  0  0  0  0  0  0  0  0
  1  2  1  0
  2  3  1  0
  4  3  1  6
  4  5  1  0
  5  6  2  0
  6  7  1  0
  7  8  2  0
  8  9  1  0
  9 10  2  0
  4 11  1  0
 11 12  1  1
 12 13  1  0
 13 14  1  0
 14 15  1  1
 15 16  1  0
 16 17  1  0
 16 18  1  0
 16 19  1  0
 19 20  1  1
 19 21  1  0
 14 22  1  0
 10  5  1  0
 22 11  1  0
M  END
>  <CHROM.0>  (31) 
-162.22597393,-59.74730794,96.51274802,79.88409690,-73.32784484,-155.87408315
-64.20207062,-175.50731852,-179.49041280,-62.14206820,-57.00193829

>  <CHROM.1>  (31) 
-175.15813790,-172.13753565,116.37743370,-58.48952332,140.95891634,77.45246464
-178.32897814,57.01297128,-4.23681675,12.23839955,-18.81784673,-2.43990172
0.51349015,0.14975462

>  <Name>  (31) 
denovo_401

>  <RI>  (31) 
-5.35378e+08

>  <Rbt.Current_Directory>  (31) 
/tmp/claude-0/-home-user-Rare-cancers/1af35c7f-7dc4-53ce-91d2-1631a2a10a85/scratchpad/smwork/cross/dock_8XTT-model20

>  <Rbt.Executable>  (31) 
rbdock - v25.07-alpha

>  <Rbt.Library>  (31) 
libRbt.so (25.07, Buildalpha)

>  <Rbt.Parameter_File>  (31) 
/tmp/claude-0/-home-user-Rare-cancers/1af35c7f-7dc4-53ce-91d2-1631a2a10a85/scratchpad/rdroot/share/rDock/data/scripts/dock.prm

>  <Rbt.Receptor>  (31) 
rec.prm

>  <SCORE>  (31) 
-0.3400

>  <SCORE.INTER>  (31) 
-0.694511

>  <SCORE.INTER.CONST>  (31) 
1

>  <SCORE.INTER.POLAR>  (31) 
0

>  <SCORE.INTER.REPUL>  (31) 
0.00115012

>  <SCORE.INTER.ROT>  (31) 
7

>  <SCORE.INTER.VDW>  (31) 
-13.1003

>  <SCORE.INTER.norm>  (31) 
-0.0315687

>  <SCORE.INTRA>  (31) 
1.9897

>  <SCORE.INTRA.DIHEDRAL>  (31) 
3.33147

>  <SCORE.INTRA.DIHEDRAL.0>  (31) 
3.78927

>  <SCORE.INTRA.POLAR>  (31) 
0

>  <SCORE.INTRA.POLAR.0>  (31) 
0

>  <SCORE.INTRA.REPUL>  (31) 
0

>  <SCORE.INTRA.REPUL.0>  (31) 
0

>  <SCORE.INTRA.VDW>  (31) 
0.323963

>  <SCORE.INTRA.VDW.0>  (31) 
1.02728

>  <SCORE.INTRA.norm>  (31) 
0.0904407

>  <SCORE.RESTR>  (31) 
0

>  <SCORE.RESTR.CAVITY>  (31) 
0

>  <SCORE.RESTR.norm>  (31) 
0

>  <SCORE.SYSTEM>  (31) 
-1.63514

>  <SCORE.SYSTEM.CONST>  (31) 
0

>  <SCORE.SYSTEM.DIHEDRAL>  (31) 
10.5964

>  <SCORE.SYSTEM.POLAR>  (31) 
-0.822683

>  <SCORE.SYSTEM.REPUL>  (31) 
0.23459

>  <SCORE.SYSTEM.VDW>  (31) 
-5.30917

>  <SCORE.SYSTEM.norm>  (31) 
-0.0743245

>  <SCORE.heavy>  (31) 
22

>  <SCORE.norm>  (31) 
-0.0154525

$$$$
denovo_401
     RDKit          3D

 22 23  0  0  0  0  0  0  0  0999 V2000
   -9.1795   13.5613  -19.4046 C   0  0  0  0  0  0  0  0  0  0  0  0
   -9.3047   12.7479  -18.2457 O   0  0  0  0  0  0  0  0  0  0  0  0
   -8.0383   12.2439  -17.8150 C   0  0  0  0  0  0  0  0  0  0  0  0
   -7.3886   11.4032  -18.9357 C   0  0  2  0  0  0  0  0  0  0  0  0
   -8.2005   10.1310  -19.1536 C   0  0  0  0  0  0  0  0  0  0  0  0
   -7.5452    8.9377  -19.4933 C   0  0  0  0  0  0  0  0  0  0  0  0
   -8.2692    7.7622  -19.6998 C   0  0  0  0  0  0  0  0  0  0  0  0
   -9.6560    7.7642  -19.5709 C   0  0  0  0  0  0  0  0  0  0  0  0
  -10.3205    8.9416  -19.2355 C   0  0  0  0  0  0  0  0  0  0  0  0
   -9.5987   10.1185  -19.0287 C   0  0  0  0  0  0  0  0  0  0  0  0
   -5.8951   11.0909  -18.6625 C   0  0  2  0  0  0  0  0  0  0  0  0
   -5.5741   10.7213  -17.2106 C   0  0  0  0  0  0  0  0  0  0  0  0
   -4.1077   11.1035  -16.9866 C   0  0  0  0  0  0  0  0  0  0  0  0
   -3.6455   11.8310  -18.2520 C   0  0  2  0  0  0  0  0  0  0  0  0
   -2.6899   13.0184  -18.0429 C   0  0  0  0  0  0  0  0  0  0  0  0
   -1.1496   12.7342  -17.9899 C   0  0  0  0  0  0  0  0  0  0  0  0
   -0.3888   14.0476  -17.7159 C   0  0  0  0  0  0  0  0  0  0  0  0
   -0.9240   11.7961  -16.7769 C   0  0  0  0  0  0  0  0  0  0  0  0
   -0.6180   12.0588  -19.2934 C   0  0  1  0  0  0  0  0  0  0  0  0
   -1.2107   10.6845  -19.6063 C   0  0  0  0  0  0  0  0  0  0  0  0
   -0.8804   12.8749  -20.4362 O   0  0  0  0  0  0  0  0  0  0  0  0
   -4.9613   12.2826  -18.8995 C   0  0  0  0  0  0  0  0  0  0  0  0
  1  2  1  0
  2  3  1  0
  4  3  1  1
  4  5  1  0
  5  6  2  0
  6  7  1  0
  7  8  2  0
  8  9  1  0
  9 10  2  0
  4 11  1  0
 11 12  1  1
 12 13  1  0
 13 14  1  0
 14 15  1  1
 15 16  1  0
 16 17  1  0
 16 18  1  0
 16 19  1  0
 19 20  1  6
 19 21  1  0
 14 22  1  0
 10  5  1  0
 22 11  1  0
M  END
>  <CHROM.0>  (32) 
-158.28941798,-176.62553517,-61.06016432,-179.48898335,-78.28725671,-77.02263914
-66.07160729,-178.39791044,68.15214344,-62.07744047,62.33926176

>  <CHROM.1>  (32) 
-59.30810883,-67.65869447,-144.88018766,41.26023629,88.00696520,-177.65342859
-62.16901856,172.07555693,-5.34330066,11.34266907,-18.65764675,2.83664037
0.00059586,-2.89942656

>  <Name>  (32) 
denovo_401

>  <RI>  (32) 
-5.35378e+08

>  <Rbt.Current_Directory>  (32) 
/tmp/claude-0/-home-user-Rare-cancers/1af35c7f-7dc4-53ce-91d2-1631a2a10a85/scratchpad/smwork/cross/dock_8XTT-model20

>  <Rbt.Executable>  (32) 
rbdock - v25.07-alpha

>  <Rbt.Library>  (32) 
libRbt.so (25.07, Buildalpha)

>  <Rbt.Parameter_File>  (32) 
/tmp/claude-0/-home-user-Rare-cancers/1af35c7f-7dc4-53ce-91d2-1631a2a10a85/scratchpad/rdroot/share/rDock/data/scripts/dock.prm

>  <Rbt.Receptor>  (32) 
rec.prm

>  <SCORE>  (32) 
4.7101

>  <SCORE.INTER>  (32) 
3.83291

>  <SCORE.INTER.CONST>  (32) 
1

>  <SCORE.INTER.POLAR>  (32) 
0

>  <SCORE.INTER.REPUL>  (32) 
0

>  <SCORE.INTER.ROT>  (32) 
7

>  <SCORE.INTER.VDW>  (32) 
-8.56709

>  <SCORE.INTER.norm>  (32) 
0.174223

>  <SCORE.INTRA>  (32) 
6.97975

>  <SCORE.INTRA.DIHEDRAL>  (32) 
1.89271

>  <SCORE.INTRA.DIHEDRAL.0>  (32) 
3.78927

>  <SCORE.INTRA.POLAR>  (32) 
0

>  <SCORE.INTRA.POLAR.0>  (32) 
0

>  <SCORE.INTRA.REPUL>  (32) 
0

>  <SCORE.INTRA.REPUL.0>  (32) 
0

>  <SCORE.INTRA.VDW>  (32) 
6.0334

>  <SCORE.INTRA.VDW.0>  (32) 
1.02728

>  <SCORE.INTRA.norm>  (32) 
0.317261

>  <SCORE.RESTR>  (32) 
2.57273

>  <SCORE.RESTR.CAVITY>  (32) 
2.57273

>  <SCORE.RESTR.norm>  (32) 
0.116942

>  <SCORE.SYSTEM>  (32) 
-8.6753

>  <SCORE.SYSTEM.CONST>  (32) 
0

>  <SCORE.SYSTEM.DIHEDRAL>  (32) 
4.04246

>  <SCORE.SYSTEM.POLAR>  (32) 
-1.77274

>  <SCORE.SYSTEM.REPUL>  (32) 
0.0477501

>  <SCORE.SYSTEM.VDW>  (32) 
-4.90797

>  <SCORE.SYSTEM.norm>  (32) 
-0.394332

>  <SCORE.heavy>  (32) 
22

>  <SCORE.norm>  (32) 
0.214095

$$$$
denovo_401
     RDKit          3D

 22 23  0  0  0  0  0  0  0  0999 V2000
  -10.7036   11.9382  -19.6162 C   0  0  0  0  0  0  0  0  0  0  0  0
  -10.3525   12.1053  -18.2490 O   0  0  0  0  0  0  0  0  0  0  0  0
  -10.0178   13.4629  -17.9520 C   0  0  0  0  0  0  0  0  0  0  0  0
   -9.1394   13.5316  -16.6837 C   0  0  2  0  0  0  0  0  0  0  0  0
   -7.9798   12.5500  -16.8139 C   0  0  0  0  0  0  0  0  0  0  0  0
   -7.6780   11.9926  -18.0657 C   0  0  0  0  0  0  0  0  0  0  0  0
   -6.6226   11.0899  -18.2070 C   0  0  0  0  0  0  0  0  0  0  0  0
   -5.8566   10.7322  -17.1001 C   0  0  0  0  0  0  0  0  0  0  0  0
   -6.1451   11.2763  -15.8508 C   0  0  0  0  0  0  0  0  0  0  0  0
   -7.2003   12.1790  -15.7069 C   0  0  0  0  0  0  0  0  0  0  0  0
   -9.9464   13.2969  -15.3813 C   0  0  2  0  0  0  0  0  0  0  0  0
  -10.4049   11.8511  -15.1647 C   0  0  0  0  0  0  0  0  0  0  0  0
  -11.6624   11.9276  -14.2933 C   0  0  0  0  0  0  0  0  0  0  0  0
  -12.0066   13.4124  -14.1489 C   0  0  2  0  0  0  0  0  0  0  0  0
  -13.5035   13.7673  -14.1575 C   0  0  0  0  0  0  0  0  0  0  0  0
  -14.0153   14.8610  -13.1585 C   0  0  0  0  0  0  0  0  0  0  0  0
  -13.5331   14.5274  -11.7321 C   0  0  0  0  0  0  0  0  0  0  0  0
  -13.3396   16.1886  -13.5868 C   0  0  0  0  0  0  0  0  0  0  0  0
  -15.5684   15.0195  -13.1852 C   0  0  1  0  0  0  0  0  0  0  0  0
  -16.3479   13.9527  -12.4156 C   0  0  0  0  0  0  0  0  0  0  0  0
  -15.9640   16.2767  -12.6338 O   0  0  0  0  0  0  0  0  0  0  0  0
  -11.2739   14.0607  -15.3309 C   0  0  0  0  0  0  0  0  0  0  0  0
  1  2  1  0
  2  3  1  0
  4  3  1  6
  4  5  1  0
  5  6  2  0
  6  7  1  0
  7  8  2  0
  8  9  1  0
  9 10  2  0
  4 11  1  0
 11 12  1  6
 12 13  1  0
 13 14  1  0
 14 15  1  6
 15 16  1  0
 16 17  1  0
 16 18  1  0
 16 19  1  0
 19 20  1  1
 19 21  1  0
 14 22  1  0
 10  5  1  0
 22 11  1  0
M  END
>  <CHROM.0>  (33) 
23.67895831,-59.20101696,179.67969353,-179.73179746,-76.42388981,46.54339273
-63.35458290,176.54799642,-77.48233251,-60.22472636,58.55717483

>  <CHROM.1>  (33) 
-157.90387281,50.15677440,14.30921734,72.08555896,139.52077685,-51.20355102
78.64912524,75.57463355,-11.01288990,13.23354600,-15.39518596,0.56861657
0.35098878,-1.69779585

>  <Name>  (33) 
denovo_401

>  <RI>  (33) 
-5.35378e+08

>  <Rbt.Current_Directory>  (33) 
/tmp/claude-0/-home-user-Rare-cancers/1af35c7f-7dc4-53ce-91d2-1631a2a10a85/scratchpad/smwork/cross/dock_8XTT-model20

>  <Rbt.Executable>  (33) 
rbdock - v25.07-alpha

>  <Rbt.Library>  (33) 
libRbt.so (25.07, Buildalpha)

>  <Rbt.Parameter_File>  (33) 
/tmp/claude-0/-home-user-Rare-cancers/1af35c7f-7dc4-53ce-91d2-1631a2a10a85/scratchpad/rdroot/share/rDock/data/scripts/dock.prm

>  <Rbt.Receptor>  (33) 
rec.prm

>  <SCORE>  (33) 
63.3169

>  <SCORE.INTER>  (33) 
59.3521

>  <SCORE.INTER.CONST>  (33) 
1

>  <SCORE.INTER.POLAR>  (33) 
0

>  <SCORE.INTER.REPUL>  (33) 
0.047558

>  <SCORE.INTER.ROT>  (33) 
7

>  <SCORE.INTER.VDW>  (33) 
46.7144

>  <SCORE.INTER.norm>  (33) 
2.69782

>  <SCORE.INTRA>  (33) 
9.5456

>  <SCORE.INTRA.DIHEDRAL>  (33) 
7.62495

>  <SCORE.INTRA.DIHEDRAL.0>  (33) 
3.78927

>  <SCORE.INTRA.POLAR>  (33) 
0

>  <SCORE.INTRA.POLAR.0>  (33) 
0

>  <SCORE.INTRA.REPUL>  (33) 
0

>  <SCORE.INTRA.REPUL.0>  (33) 
0

>  <SCORE.INTRA.VDW>  (33) 
5.73312

>  <SCORE.INTRA.VDW.0>  (33) 
1.02728

>  <SCORE.INTRA.norm>  (33) 
0.433891

>  <SCORE.RESTR>  (33) 
0

>  <SCORE.RESTR.CAVITY>  (33) 
0

>  <SCORE.RESTR.norm>  (33) 
0

>  <SCORE.SYSTEM>  (33) 
-5.58087

>  <SCORE.SYSTEM.CONST>  (33) 
0

>  <SCORE.SYSTEM.DIHEDRAL>  (33) 
4.39866

>  <SCORE.SYSTEM.POLAR>  (33) 
-1.24912

>  <SCORE.SYSTEM.VDW>  (33) 
-3.5332

>  <SCORE.SYSTEM.norm>  (33) 
-0.253676

>  <SCORE.heavy>  (33) 
22

>  <SCORE.norm>  (33) 
2.87804

$$$$
denovo_401
     RDKit          3D

 22 23  0  0  0  0  0  0  0  0999 V2000
  -16.3811   14.0733  -11.5826 C   0  0  0  0  0  0  0  0  0  0  0  0
  -15.5102   12.9499  -11.5926 O   0  0  0  0  0  0  0  0  0  0  0  0
  -15.0310   12.6651  -12.9089 C   0  0  0  0  0  0  0  0  0  0  0  0
  -13.7706   13.5046  -13.2120 C   0  0  2  0  0  0  0  0  0  0  0  0
  -14.1698   14.9588  -13.4379 C   0  0  0  0  0  0  0  0  0  0  0  0
  -13.4443   15.9841  -12.8124 C   0  0  0  0  0  0  0  0  0  0  0  0
  -13.7941   17.3219  -13.0031 C   0  0  0  0  0  0  0  0  0  0  0  0
  -14.8730   17.6522  -13.8197 C   0  0  0  0  0  0  0  0  0  0  0  0
  -15.6035   16.6451  -14.4462 C   0  0  0  0  0  0  0  0  0  0  0  0
  -15.2558   15.3064  -14.2567 C   0  0  0  0  0  0  0  0  0  0  0  0
  -12.9479   12.9443  -14.4002 C   0  0  2  0  0  0  0  0  0  0  0  0
  -12.6974   11.4335  -14.3488 C   0  0  0  0  0  0  0  0  0  0  0  0
  -11.4037   11.1880  -15.1315 C   0  0  0  0  0  0  0  0  0  0  0  0
  -10.8388   12.5655  -15.4887 C   0  0  2  0  0  0  0  0  0  0  0  0
   -9.3079   12.7078  -15.4331 C   0  0  0  0  0  0  0  0  0  0  0  0
   -8.4526   11.9864  -16.5304 C   0  0  0  0  0  0  0  0  0  0  0  0
   -6.9821   11.9060  -16.0724 C   0  0  0  0  0  0  0  0  0  0  0  0
   -8.9983   10.5386  -16.6220 C   0  0  0  0  0  0  0  0  0  0  0  0
   -8.5516   12.6835  -17.9239 C   0  0  1  0  0  0  0  0  0  0  0  0
   -7.8915   11.9311  -19.0798 C   0  0  0  0  0  0  0  0  0  0  0  0
   -9.9151   12.8783  -18.3030 O   0  0  0  0  0  0  0  0  0  0  0  0
  -11.5217   13.4989  -14.4804 C   0  0  0  0  0  0  0  0  0  0  0  0
  1  2  1  0
  2  3  1  0
  4  3  1  6
  4  5  1  0
  5  6  2  0
  6  7  1  0
  7  8  2  0
  8  9  1  0
  9 10  2  0
  4 11  1  0
 11 12  1  1
 12 13  1  0
 13 14  1  0
 14 15  1  1
 15 16  1  0
 16 17  1  0
 16 18  1  0
 16 19  1  0
 19 20  1  6
 19 21  1  0
 14 22  1  0
 10  5  1  0
 22 11  1  0
M  END
>  <CHROM.0>  (34) 
28.99811336,-173.65550696,173.60921521,81.65131709,-76.27455104,-76.70251564
56.50000971,-53.69436626,-74.26731727,-60.98123532,64.34353162

>  <CHROM.1>  (34) 
86.31779542,-73.11045497,133.75484069,-47.06313377,70.81078548,-163.58066992
-172.32649344,-56.58910442,-12.10455893,13.44097584,-14.80463323,2.92992381
0.66022076,-0.30067890

>  <Name>  (34) 
denovo_401

>  <RI>  (34) 
-5.35378e+08

>  <Rbt.Current_Directory>  (34) 
/tmp/claude-0/-home-user-Rare-cancers/1af35c7f-7dc4-53ce-91d2-1631a2a10a85/scratchpad/smwork/cross/dock_8XTT-model20

>  <Rbt.Executable>  (34) 
rbdock - v25.07-alpha

>  <Rbt.Library>  (34) 
libRbt.so (25.07, Buildalpha)

>  <Rbt.Parameter_File>  (34) 
/tmp/claude-0/-home-user-Rare-cancers/1af35c7f-7dc4-53ce-91d2-1631a2a10a85/scratchpad/rdroot/share/rDock/data/scripts/dock.prm

>  <Rbt.Receptor>  (34) 
rec.prm

>  <SCORE>  (34) 
64.0572

>  <SCORE.INTER>  (34) 
63.972

>  <SCORE.INTER.CONST>  (34) 
1

>  <SCORE.INTER.POLAR>  (34) 
-0.45969

>  <SCORE.INTER.REPUL>  (34) 
0

>  <SCORE.INTER.ROT>  (34) 
7

>  <SCORE.INTER.VDW>  (34) 
53.1349

>  <SCORE.INTER.norm>  (34) 
2.90782

>  <SCORE.INTRA>  (34) 
6.98987

>  <SCORE.INTRA.DIHEDRAL>  (34) 
2.94197

>  <SCORE.INTRA.DIHEDRAL.0>  (34) 
3.78927

>  <SCORE.INTRA.POLAR>  (34) 
0

>  <SCORE.INTRA.POLAR.0>  (34) 
0

>  <SCORE.INTRA.REPUL>  (34) 
0

>  <SCORE.INTRA.REPUL.0>  (34) 
0

>  <SCORE.INTRA.VDW>  (34) 
5.51889

>  <SCORE.INTRA.VDW.0>  (34) 
1.02728

>  <SCORE.INTRA.norm>  (34) 
0.317721

>  <SCORE.RESTR>  (34) 
0

>  <SCORE.RESTR.CAVITY>  (34) 
0

>  <SCORE.RESTR.norm>  (34) 
0

>  <SCORE.SYSTEM>  (34) 
-6.90463

>  <SCORE.SYSTEM.CONST>  (34) 
0

>  <SCORE.SYSTEM.DIHEDRAL>  (34) 
7.31272

>  <SCORE.SYSTEM.POLAR>  (34) 
-2.42183

>  <SCORE.SYSTEM.REPUL>  (34) 
0.0299567

>  <SCORE.SYSTEM.VDW>  (34) 
-2.47656

>  <SCORE.SYSTEM.norm>  (34) 
-0.313847

>  <SCORE.heavy>  (34) 
22

>  <SCORE.norm>  (34) 
2.91169

$$$$
denovo_401
     RDKit          3D

 22 23  0  0  0  0  0  0  0  0999 V2000
   -5.3526   11.6875  -16.0915 C   0  0  0  0  0  0  0  0  0  0  0  0
   -6.6653   11.4921  -16.6004 O   0  0  0  0  0  0  0  0  0  0  0  0
   -7.6599   11.9781  -15.6960 C   0  0  0  0  0  0  0  0  0  0  0  0
   -9.0412   11.3865  -16.0526 C   0  0  2  0  0  0  0  0  0  0  0  0
   -9.4914   11.9248  -17.4063 C   0  0  0  0  0  0  0  0  0  0  0  0
   -8.9370   13.1153  -17.9003 C   0  0  0  0  0  0  0  0  0  0  0  0
   -9.3367   13.6274  -19.1360 C   0  0  0  0  0  0  0  0  0  0  0  0
  -10.2953   12.9577  -19.8926 C   0  0  0  0  0  0  0  0  0  0  0  0
  -10.8555   11.7754  -19.4145 C   0  0  0  0  0  0  0  0  0  0  0  0
  -10.4577   11.2614  -18.1790 C   0  0  0  0  0  0  0  0  0  0  0  0
  -10.1039   11.6384  -14.9526 C   0  0  2  0  0  0  0  0  0  0  0  0
  -11.3683   10.7819  -15.0767 C   0  0  0  0  0  0  0  0  0  0  0  0
  -12.4917   11.5789  -14.4064 C   0  0  0  0  0  0  0  0  0  0  0  0
  -11.9050   12.9464  -14.0460 C   0  0  2  0  0  0  0  0  0  0  0  0
  -12.8422   14.1545  -14.2158 C   0  0  0  0  0  0  0  0  0  0  0  0
  -14.0108   14.3406  -13.1883 C   0  0  0  0  0  0  0  0  0  0  0  0
  -13.4780   15.0299  -11.9156 C   0  0  0  0  0  0  0  0  0  0  0  0
  -15.0257   15.3027  -13.8566 C   0  0  0  0  0  0  0  0  0  0  0  0
  -14.7117   12.9935  -12.8250 C   0  0  1  0  0  0  0  0  0  0  0  0
  -15.6750   13.0565  -11.6393 C   0  0  0  0  0  0  0  0  0  0  0  0
  -15.4712   12.4979  -13.9289 O   0  0  0  0  0  0  0  0  0  0  0  0
  -10.6809   13.0579  -14.9644 C   0  0  0  0  0  0  0  0  0  0  0  0
  1  2  1  0
  2  3  1  0
  4  3  1  1
  4  5  1  0
  5  6  2  0
  6  7  1  0
  7  8  2  0
  8  9  1  0
  9 10  2  0
  4 11  1  0
 11 12  1  6
 12 13  1  0
 13 14  1  0
 14 15  1  6
 15 16  1  0
 16 17  1  0
 16 18  1  0
 16 19  1  0
 19 20  1  1
 19 21  1  0
 14 22  1  0
 10  5  1  0
 22 11  1  0
M  END
>  <CHROM.0>  (35) 
-158.33623509,55.75087924,178.00546644,-63.71886313,-75.85382898,-76.48349073
60.81282171,-54.50083562,-67.32683915,-58.47649683,63.94865524

>  <CHROM.1>  (35) 
-162.94484091,-66.56541439,-21.36750867,-165.00024555,72.64723763,82.34401675
168.83830799,73.25904321,-11.21079942,12.66856481,-15.44353666,-0.59993229
-0.25444976,1.56437236

>  <Name>  (35) 
denovo_401

>  <RI>  (35) 
-5.35378e+08

>  <Rbt.Current_Directory>  (35) 
/tmp/claude-0/-home-user-Rare-cancers/1af35c7f-7dc4-53ce-91d2-1631a2a10a85/scratchpad/smwork/cross/dock_8XTT-model20

>  <Rbt.Executable>  (35) 
rbdock - v25.07-alpha

>  <Rbt.Library>  (35) 
libRbt.so (25.07, Buildalpha)

>  <Rbt.Parameter_File>  (35) 
/tmp/claude-0/-home-user-Rare-cancers/1af35c7f-7dc4-53ce-91d2-1631a2a10a85/scratchpad/rdroot/share/rDock/data/scripts/dock.prm

>  <Rbt.Receptor>  (35) 
rec.prm

>  <SCORE>  (35) 
64.1786

>  <SCORE.INTER>  (35) 
64.563

>  <SCORE.INTER.CONST>  (35) 
1

>  <SCORE.INTER.POLAR>  (35) 
0

>  <SCORE.INTER.REPUL>  (35) 
0.0226434

>  <SCORE.INTER.ROT>  (35) 
7

>  <SCORE.INTER.VDW>  (35) 
52.0498

>  <SCORE.INTER.norm>  (35) 
2.93468

>  <SCORE.INTRA>  (35) 
4.35013

>  <SCORE.INTRA.DIHEDRAL>  (35) 
3.43014

>  <SCORE.INTRA.DIHEDRAL.0>  (35) 
3.78927

>  <SCORE.INTRA.POLAR>  (35) 
0

>  <SCORE.INTRA.POLAR.0>  (35) 
0

>  <SCORE.INTRA.REPUL>  (35) 
0

>  <SCORE.INTRA.REPUL.0>  (35) 
0

>  <SCORE.INTRA.VDW>  (35) 
2.63506

>  <SCORE.INTRA.VDW.0>  (35) 
1.02728

>  <SCORE.INTRA.norm>  (35) 
0.197733

>  <SCORE.RESTR>  (35) 
0

>  <SCORE.RESTR.CAVITY>  (35) 
0

>  <SCORE.RESTR.norm>  (35) 
0

>  <SCORE.SYSTEM>  (35) 
-4.7345

>  <SCORE.SYSTEM.CONST>  (35) 
0

>  <SCORE.SYSTEM.DIHEDRAL>  (35) 
3.72722

>  <SCORE.SYSTEM.POLAR>  (35) 
-1.82904

>  <SCORE.SYSTEM.REPUL>  (35) 
0.286304

>  <SCORE.SYSTEM.VDW>  (35) 
-1.81089

>  <SCORE.SYSTEM.norm>  (35) 
-0.215204

>  <SCORE.heavy>  (35) 
22

>  <SCORE.norm>  (35) 
2.91721

$$$$
denovo_401
     RDKit          3D

 22 23  0  0  0  0  0  0  0  0999 V2000
  -16.3510   14.1261  -11.5726 C   0  0  0  0  0  0  0  0  0  0  0  0
  -15.4839   12.9999  -11.5619 O   0  0  0  0  0  0  0  0  0  0  0  0
  -15.0049   12.6899  -12.8725 C   0  0  0  0  0  0  0  0  0  0  0  0
  -13.7607   13.5432  -13.2025 C   0  0  2  0  0  0  0  0  0  0  0  0
  -14.1831   14.9892  -13.4385 C   0  0  0  0  0  0  0  0  0  0  0  0
  -13.4851   16.0294  -12.8066 C   0  0  0  0  0  0  0  0  0  0  0  0
  -13.8565   17.3601  -13.0065 C   0  0  0  0  0  0  0  0  0  0  0  0
  -14.9299   17.6681  -13.8389 C   0  0  0  0  0  0  0  0  0  0  0  0
  -15.6333   16.6460  -14.4720 C   0  0  0  0  0  0  0  0  0  0  0  0
  -15.2639   15.3144  -14.2733 C   0  0  0  0  0  0  0  0  0  0  0  0
  -12.9469   12.9810  -14.3960 C   0  0  2  0  0  0  0  0  0  0  0  0
  -12.6932   11.4709  -14.3424 C   0  0  0  0  0  0  0  0  0  0  0  0
  -11.4056   11.2256  -15.1352 C   0  0  0  0  0  0  0  0  0  0  0  0
  -10.8462   12.6031  -15.5008 C   0  0  2  0  0  0  0  0  0  0  0  0
   -9.3152   12.7483  -15.4584 C   0  0  0  0  0  0  0  0  0  0  0  0
   -8.4652   11.9923  -16.5364 C   0  0  0  0  0  0  0  0  0  0  0  0
   -6.9854   11.9620  -16.1028 C   0  0  0  0  0  0  0  0  0  0  0  0
   -8.9833   10.5315  -16.5496 C   0  0  0  0  0  0  0  0  0  0  0  0
   -8.6029   12.6205  -17.9591 C   0  0  1  0  0  0  0  0  0  0  0  0
   -7.9212   11.8436  -19.0858 C   0  0  0  0  0  0  0  0  0  0  0  0
   -9.9761   12.7423  -18.3340 O   0  0  0  0  0  0  0  0  0  0  0  0
  -11.5224   13.5380  -14.4895 C   0  0  0  0  0  0  0  0  0  0  0  0
  1  2  1  0
  2  3  1  0
  4  3  1  6
  4  5  1  0
  5  6  2  0
  6  7  1  0
  7  8  2  0
  8  9  1  0
  9 10  2  0
  4 11  1  0
 11 12  1  1
 12 13  1  0
 13 14  1  0
 14 15  1  1
 15 16  1  0
 16 17  1  0
 16 18  1  0
 16 19  1  0
 19 20  1  6
 19 21  1  0
 14 22  1  0
 10  5  1  0
 22 11  1  0
M  END
>  <CHROM.0>  (36) 
28.26503570,-58.62170398,-60.66725495,-177.40438236,-179.67072872,16.16011830
57.42665583,-61.74332209,-70.11199039,-61.71020047,60.52162024

>  <CHROM.1>  (36) 
85.01931077,-72.08139298,132.08664197,-46.16866908,69.09781543,-165.13071949
-173.67211342,-55.90655705,-12.11646376,13.45312408,-14.80630123,2.93289054
0.66757939,-0.31799640

>  <Name>  (36) 
denovo_401

>  <RI>  (36) 
-5.35378e+08

>  <Rbt.Current_Directory>  (36) 
/tmp/claude-0/-home-user-Rare-cancers/1af35c7f-7dc4-53ce-91d2-1631a2a10a85/scratchpad/smwork/cross/dock_8XTT-model20

>  <Rbt.Executable>  (36) 
rbdock - v25.07-alpha

>  <Rbt.Library>  (36) 
libRbt.so (25.07, Buildalpha)

>  <Rbt.Parameter_File>  (36) 
/tmp/claude-0/-home-user-Rare-cancers/1af35c7f-7dc4-53ce-91d2-1631a2a10a85/scratchpad/rdroot/share/rDock/data/scripts/dock.prm

>  <Rbt.Receptor>  (36) 
rec.prm

>  <SCORE>  (36) 
70.7664

>  <SCORE.INTER>  (36) 
64.7226

>  <SCORE.INTER.CONST>  (36) 
1

>  <SCORE.INTER.POLAR>  (36) 
-0.45969

>  <SCORE.INTER.REPUL>  (36) 
0

>  <SCORE.INTER.ROT>  (36) 
7

>  <SCORE.INTER.VDW>  (36) 
53.8855

>  <SCORE.INTER.norm>  (36) 
2.94194

>  <SCORE.INTRA>  (36) 
6.96611

>  <SCORE.INTRA.DIHEDRAL>  (36) 
2.35667

>  <SCORE.INTRA.DIHEDRAL.0>  (36) 
3.78927

>  <SCORE.INTRA.POLAR>  (36) 
0

>  <SCORE.INTRA.POLAR.0>  (36) 
0

>  <SCORE.INTRA.REPUL>  (36) 
0

>  <SCORE.INTRA.REPUL.0>  (36) 
0

>  <SCORE.INTRA.VDW>  (36) 
5.78778

>  <SCORE.INTRA.VDW.0>  (36) 
1.02728

>  <SCORE.INTRA.norm>  (36) 
0.316641

>  <SCORE.RESTR>  (36) 
0

>  <SCORE.RESTR.CAVITY>  (36) 
0

>  <SCORE.RESTR.norm>  (36) 
0

>  <SCORE.SYSTEM>  (36) 
-0.922303

>  <SCORE.SYSTEM.CONST>  (36) 
0

>  <SCORE.SYSTEM.DIHEDRAL>  (36) 
7.6542

>  <SCORE.SYSTEM.POLAR>  (36) 
-1.25414

>  <SCORE.SYSTEM.REPUL>  (36) 
0.0731511

>  <SCORE.SYSTEM.VDW>  (36) 
-0.851085

>  <SCORE.SYSTEM.norm>  (36) 
-0.0419229

>  <SCORE.heavy>  (36) 
22

>  <SCORE.norm>  (36) 
3.21665

$$$$
denovo_401
     RDKit          3D

 22 23  0  0  0  0  0  0  0  0999 V2000
   -7.9894   12.7207  -13.3827 C   0  0  0  0  0  0  0  0  0  0  0  0
   -7.3460   12.1070  -14.4916 O   0  0  0  0  0  0  0  0  0  0  0  0
   -7.9101   12.5358  -15.7330 C   0  0  0  0  0  0  0  0  0  0  0  0
   -9.2583   11.8246  -15.9815 C   0  0  2  0  0  0  0  0  0  0  0  0
   -9.7352   12.1187  -17.3996 C   0  0  0  0  0  0  0  0  0  0  0  0
  -10.5988   11.2193  -18.0432 C   0  0  0  0  0  0  0  0  0  0  0  0
  -11.0455   11.4676  -19.3422 C   0  0  0  0  0  0  0  0  0  0  0  0
  -10.6346   12.6160  -20.0146 C   0  0  0  0  0  0  0  0  0  0  0  0
   -9.7764   13.5173  -19.3891 C   0  0  0  0  0  0  0  0  0  0  0  0
   -9.3280   13.2711  -18.0901 C   0  0  0  0  0  0  0  0  0  0  0  0
  -10.3335   12.1913  -14.9269 C   0  0  2  0  0  0  0  0  0  0  0  0
  -11.6544   11.4278  -15.0680 C   0  0  0  0  0  0  0  0  0  0  0  0
  -12.7352   12.3280  -14.4614 C   0  0  0  0  0  0  0  0  0  0  0  0
  -12.0585   13.6591  -14.1231 C   0  0  2  0  0  0  0  0  0  0  0  0
  -12.8959   14.9275  -14.3618 C   0  0  0  0  0  0  0  0  0  0  0  0
  -14.0132   15.2885  -13.3239 C   0  0  0  0  0  0  0  0  0  0  0  0
  -13.4027   16.1071  -12.1680 C   0  0  0  0  0  0  0  0  0  0  0  0
  -15.0183   16.2024  -14.0702 C   0  0  0  0  0  0  0  0  0  0  0  0
  -14.7481   14.0275  -12.7692 C   0  0  1  0  0  0  0  0  0  0  0  0
  -15.8934   14.3129  -11.7971 C   0  0  0  0  0  0  0  0  0  0  0  0
  -15.3107   13.2547  -13.8310 O   0  0  0  0  0  0  0  0  0  0  0  0
  -10.8009   13.6487  -15.0020 C   0  0  0  0  0  0  0  0  0  0  0  0
  1  2  1  0
  2  3  1  0
  4  3  1  1
  4  5  1  0
  5  6  2  0
  6  7  1  0
  7  8  2  0
  8  9  1  0
  9 10  2  0
  4 11  1  0
 11 12  1  6
 12 13  1  0
 13 14  1  0
 14 15  1  6
 15 16  1  0
 16 17  1  0
 16 18  1  0
 16 19  1  0
 19 20  1  1
 19 21  1  0
 14 22  1  0
 10  5  1  0
 22 11  1  0
M  END
>  <CHROM.0>  (37) 
-155.55023164,61.66101790,-60.94718680,77.86198628,-175.06778382,-75.62006420
-65.30390053,-57.13973466,-70.65127827,-49.94707367,-56.41850433

>  <CHROM.1>  (37) 
-76.83187402,-170.99264772,154.79500470,-175.49612619,76.93206943,86.26167919
-177.40034084,169.12815747,-11.52256808,13.23940999,-15.25028280,-0.71516792
-0.28500816,1.37006378

>  <Name>  (37) 
denovo_401

>  <RI>  (37) 
-5.35378e+08

>  <Rbt.Current_Directory>  (37) 
/tmp/claude-0/-home-user-Rare-cancers/1af35c7f-7dc4-53ce-91d2-1631a2a10a85/scratchpad/smwork/cross/dock_8XTT-model20

>  <Rbt.Executable>  (37) 
rbdock - v25.07-alpha

>  <Rbt.Library>  (37) 
libRbt.so (25.07, Buildalpha)

>  <Rbt.Parameter_File>  (37) 
/tmp/claude-0/-home-user-Rare-cancers/1af35c7f-7dc4-53ce-91d2-1631a2a10a85/scratchpad/rdroot/share/rDock/data/scripts/dock.prm

>  <Rbt.Receptor>  (37) 
rec.prm

>  <SCORE>  (37) 
74.0474

>  <SCORE.INTER>  (37) 
71.8348

>  <SCORE.INTER.CONST>  (37) 
1

>  <SCORE.INTER.POLAR>  (37) 
0

>  <SCORE.INTER.REPUL>  (37) 
0

>  <SCORE.INTER.ROT>  (37) 
7

>  <SCORE.INTER.VDW>  (37) 
59.4348

>  <SCORE.INTER.norm>  (37) 
3.26522

>  <SCORE.INTRA>  (37) 
6.36317

>  <SCORE.INTRA.DIHEDRAL>  (37) 
2.96092

>  <SCORE.INTRA.DIHEDRAL.0>  (37) 
3.78927

>  <SCORE.INTRA.POLAR>  (37) 
0

>  <SCORE.INTRA.POLAR.0>  (37) 
0

>  <SCORE.INTRA.REPUL>  (37) 
0

>  <SCORE.INTRA.REPUL.0>  (37) 
0

>  <SCORE.INTRA.VDW>  (37) 
4.8827

>  <SCORE.INTRA.VDW.0>  (37) 
1.02728

>  <SCORE.INTRA.norm>  (37) 
0.289235

>  <SCORE.RESTR>  (37) 
0

>  <SCORE.RESTR.CAVITY>  (37) 
0

>  <SCORE.RESTR.norm>  (37) 
0

>  <SCORE.SYSTEM>  (37) 
-4.15055

>  <SCORE.SYSTEM.CONST>  (37) 
0

>  <SCORE.SYSTEM.DIHEDRAL>  (37) 
4.77095

>  <SCORE.SYSTEM.POLAR>  (37) 
-1.55313

>  <SCORE.SYSTEM.REPUL>  (37) 
0.106168

>  <SCORE.SYSTEM.VDW>  (37) 
-1.78621

>  <SCORE.SYSTEM.norm>  (37) 
-0.188661

>  <SCORE.heavy>  (37) 
22

>  <SCORE.norm>  (37) 
3.36579

$$$$
denovo_401
     RDKit          3D

 22 23  0  0  0  0  0  0  0  0999 V2000
  -16.4179   14.2333  -11.5631 C   0  0  0  0  0  0  0  0  0  0  0  0
  -15.3381   13.3260  -11.3865 O   0  0  0  0  0  0  0  0  0  0  0  0
  -14.8647   12.8189  -12.6363 C   0  0  0  0  0  0  0  0  0  0  0  0
  -13.6653   13.6557  -13.1326 C   0  0  2  0  0  0  0  0  0  0  0  0
  -14.1216   15.0837  -13.4115 C   0  0  0  0  0  0  0  0  0  0  0  0
  -13.4367   16.1592  -12.8260 C   0  0  0  0  0  0  0  0  0  0  0  0
  -13.8390   17.4743  -13.0657 C   0  0  0  0  0  0  0  0  0  0  0  0
  -14.9305   17.7312  -13.8918 C   0  0  0  0  0  0  0  0  0  0  0  0
  -15.6211   16.6736  -14.4790 C   0  0  0  0  0  0  0  0  0  0  0  0
  -15.2209   15.3576  -14.2406 C   0  0  0  0  0  0  0  0  0  0  0  0
  -12.9633   13.0269  -14.3632 C   0  0  2  0  0  0  0  0  0  0  0  0
  -12.7858   11.5068  -14.2910 C   0  0  0  0  0  0  0  0  0  0  0  0
  -11.5684   11.1769  -15.1603 C   0  0  0  0  0  0  0  0  0  0  0  0
  -10.9634   12.5148  -15.5941 C   0  0  2  0  0  0  0  0  0  0  0  0
   -9.4275   12.5784  -15.6553 C   0  0  0  0  0  0  0  0  0  0  0  0
   -8.7202   12.2121  -17.0050 C   0  0  0  0  0  0  0  0  0  0  0  0
   -8.7970   13.4103  -17.9730 C   0  0  0  0  0  0  0  0  0  0  0  0
   -7.2271   11.9777  -16.6614 C   0  0  0  0  0  0  0  0  0  0  0  0
   -9.3218   10.9345  -17.6711 C   0  0  1  0  0  0  0  0  0  0  0  0
   -9.0815    9.6277  -16.9145 C   0  0  0  0  0  0  0  0  0  0  0  0
  -10.7376   11.0535  -17.8202 O   0  0  0  0  0  0  0  0  0  0  0  0
  -11.5210   13.5047  -14.5629 C   0  0  0  0  0  0  0  0  0  0  0  0
  1  2  1  0
  2  3  1  0
  4  3  1  6
  4  5  1  0
  5  6  2  0
  6  7  1  0
  7  8  2  0
  8  9  1  0
  9 10  2  0
  4 11  1  0
 11 12  1  1
 12 13  1  0
 13 14  1  0
 14 15  1  1
 15 16  1  0
 16 17  1  0
 16 18  1  0
 16 19  1  0
 19 20  1  1
 19 21  1  0
 14 22  1  0
 10  5  1  0
 22 11  1  0
M  END
>  <CHROM.0>  (38) 
31.38943513,-175.62296546,174.84901245,69.90757458,-78.90135975,-75.12564634
175.74912704,-56.66732040,-68.78521332,-60.31851410,66.36697477

>  <CHROM.1>  (38) 
95.01962006,-64.05837055,127.19035268,-41.81939958,90.58373491,79.39660025
-67.44441911,66.30310645,-12.25918479,13.37543224,-14.77048280,2.73466870
0.66385087,-0.13757639

>  <Name>  (38) 
denovo_401

>  <RI>  (38) 
-5.35378e+08

>  <Rbt.Current_Directory>  (38) 
/tmp/claude-0/-home-user-Rare-cancers/1af35c7f-7dc4-53ce-91d2-1631a2a10a85/scratchpad/smwork/cross/dock_8XTT-model20

>  <Rbt.Executable>  (38) 
rbdock - v25.07-alpha

>  <Rbt.Library>  (38) 
libRbt.so (25.07, Buildalpha)

>  <Rbt.Parameter_File>  (38) 
/tmp/claude-0/-home-user-Rare-cancers/1af35c7f-7dc4-53ce-91d2-1631a2a10a85/scratchpad/rdroot/share/rDock/data/scripts/dock.prm

>  <Rbt.Receptor>  (38) 
rec.prm

>  <SCORE>  (38) 
77.1026

>  <SCORE.INTER>  (38) 
77.8849

>  <SCORE.INTER.CONST>  (38) 
1

>  <SCORE.INTER.POLAR>  (38) 
-0.45969

>  <SCORE.INTER.REPUL>  (38) 
0.318369

>  <SCORE.INTER.ROT>  (38) 
7

>  <SCORE.INTER.VDW>  (38) 
65.456

>  <SCORE.INTER.norm>  (38) 
3.54022

>  <SCORE.INTRA>  (38) 
6.02632

>  <SCORE.INTRA.DIHEDRAL>  (38) 
8.17004

>  <SCORE.INTRA.DIHEDRAL.0>  (38) 
3.78927

>  <SCORE.INTRA.POLAR>  (38) 
0

>  <SCORE.INTRA.POLAR.0>  (38) 
0

>  <SCORE.INTRA.REPUL>  (38) 
0

>  <SCORE.INTRA.REPUL.0>  (38) 
0

>  <SCORE.INTRA.VDW>  (38) 
1.9413

>  <SCORE.INTRA.VDW.0>  (38) 
1.02728

>  <SCORE.INTRA.norm>  (38) 
0.273924

>  <SCORE.RESTR>  (38) 
0

>  <SCORE.RESTR.CAVITY>  (38) 
0

>  <SCORE.RESTR.norm>  (38) 
0

>  <SCORE.SYSTEM>  (38) 
-6.80855

>  <SCORE.SYSTEM.CONST>  (38) 
0

>  <SCORE.SYSTEM.DIHEDRAL>  (38) 
5.33024

>  <SCORE.SYSTEM.POLAR>  (38) 
-2.16011

>  <SCORE.SYSTEM.REPUL>  (38) 
0.0406578

>  <SCORE.SYSTEM.VDW>  (38) 
-2.33259

>  <SCORE.SYSTEM.norm>  (38) 
-0.309479

>  <SCORE.heavy>  (38) 
22

>  <SCORE.norm>  (38) 
3.50467

$$$$
denovo_401
     RDKit          3D

 22 23  0  0  0  0  0  0  0  0999 V2000
  -16.3329   14.2984  -11.4878 C   0  0  0  0  0  0  0  0  0  0  0  0
  -15.3219   13.3094  -11.3456 O   0  0  0  0  0  0  0  0  0  0  0  0
  -14.8740   12.8260  -12.6140 C   0  0  0  0  0  0  0  0  0  0  0  0
  -13.6834   13.6709  -13.1177 C   0  0  2  0  0  0  0  0  0  0  0  0
  -14.1507   15.0960  -13.3926 C   0  0  0  0  0  0  0  0  0  0  0  0
  -13.4772   16.1750  -12.8001 C   0  0  0  0  0  0  0  0  0  0  0  0
  -13.8897   17.4876  -13.0360 C   0  0  0  0  0  0  0  0  0  0  0  0
  -14.9802   17.7386  -13.8654 C   0  0  0  0  0  0  0  0  0  0  0  0
  -15.6595   16.6775  -14.4595 C   0  0  0  0  0  0  0  0  0  0  0  0
  -15.2490   15.3640  -14.2249 C   0  0  0  0  0  0  0  0  0  0  0  0
  -12.9854   13.0475  -14.3534 C   0  0  2  0  0  0  0  0  0  0  0  0
  -12.7987   11.5283  -14.2839 C   0  0  0  0  0  0  0  0  0  0  0  0
  -11.5849   11.2063  -15.1612 C   0  0  0  0  0  0  0  0  0  0  0  0
  -10.9904   12.5482  -15.5973 C   0  0  2  0  0  0  0  0  0  0  0  0
   -9.4553   12.6208  -15.6681 C   0  0  0  0  0  0  0  0  0  0  0  0
   -8.7563   12.2928  -17.0319 C   0  0  0  0  0  0  0  0  0  0  0  0
   -8.7918   13.5352  -17.9451 C   0  0  0  0  0  0  0  0  0  0  0  0
   -7.2725   11.9951  -16.6972 C   0  0  0  0  0  0  0  0  0  0  0  0
   -9.3969   11.0666  -17.7557 C   0  0  1  0  0  0  0  0  0  0  0  0
   -9.2844    9.7358  -17.0112 C   0  0  0  0  0  0  0  0  0  0  0  0
  -10.7911   11.2781  -17.9841 O   0  0  0  0  0  0  0  0  0  0  0  0
  -11.5473   13.5338  -14.5615 C   0  0  0  0  0  0  0  0  0  0  0  0
  1  2  1  0
  2  3  1  0
  4  3  1  6
  4  5  1  0
  5  6  2  0
  6  7  1  0
  7  8  2  0
  8  9  1  0
  9 10  2  0
  4 11  1  0
 11 12  1  1
 12 13  1  0
 13 14  1  0
 14 15  1  1
 15 16  1  0
 16 17  1  0
 16 18  1  0
 16 19  1  0
 19 20  1  1
 19 21  1  0
 14 22  1  0
 10  5  1  0
 22 11  1  0
M  END
>  <CHROM.0>  (39) 
33.20758338,-64.15246055,172.43637794,177.06150092,-77.02437384,-153.53211459
-60.64752029,-171.76547093,-70.74753929,-65.46184763,66.14933090

>  <CHROM.1>  (39) 
90.47764403,-65.44018598,126.54736717,-41.77127014,92.00703174,81.84421945
-63.41791006,168.22116149,-12.29137306,13.41829585,-14.77604954,2.74954303
0.67930537,-0.14386844

>  <Name>  (39) 
denovo_401

>  <RI>  (39) 
-5.35378e+08

>  <Rbt.Current_Directory>  (39) 
/tmp/claude-0/-home-user-Rare-cancers/1af35c7f-7dc4-53ce-91d2-1631a2a10a85/scratchpad/smwork/cross/dock_8XTT-model20

>  <Rbt.Executable>  (39) 
rbdock - v25.07-alpha

>  <Rbt.Library>  (39) 
libRbt.so (25.07, Buildalpha)

>  <Rbt.Parameter_File>  (39) 
/tmp/claude-0/-home-user-Rare-cancers/1af35c7f-7dc4-53ce-91d2-1631a2a10a85/scratchpad/rdroot/share/rDock/data/scripts/dock.prm

>  <Rbt.Receptor>  (39) 
rec.prm

>  <SCORE>  (39) 
78.7626

>  <SCORE.INTER>  (39) 
77.2549

>  <SCORE.INTER.CONST>  (39) 
1

>  <SCORE.INTER.POLAR>  (39) 
-0.45969

>  <SCORE.INTER.REPUL>  (39) 
0.0349672

>  <SCORE.INTER.ROT>  (39) 
7

>  <SCORE.INTER.VDW>  (39) 
66.243

>  <SCORE.INTER.norm>  (39) 
3.51159

>  <SCORE.INTRA>  (39) 
6.18972

>  <SCORE.INTRA.DIHEDRAL>  (39) 
8.19101

>  <SCORE.INTRA.DIHEDRAL.0>  (39) 
3.78927

>  <SCORE.INTRA.POLAR>  (39) 
0

>  <SCORE.INTRA.POLAR.0>  (39) 
0

>  <SCORE.INTRA.REPUL>  (39) 
0

>  <SCORE.INTRA.REPUL.0>  (39) 
0

>  <SCORE.INTRA.VDW>  (39) 
2.09422

>  <SCORE.INTRA.VDW.0>  (39) 
1.02728

>  <SCORE.INTRA.norm>  (39) 
0.281351

>  <SCORE.RESTR>  (39) 
0

>  <SCORE.RESTR.CAVITY>  (39) 
0

>  <SCORE.RESTR.norm>  (39) 
0

>  <SCORE.SYSTEM>  (39) 
-4.68208

>  <SCORE.SYSTEM.CONST>  (39) 
0

>  <SCORE.SYSTEM.DIHEDRAL>  (39) 
7.30815

>  <SCORE.SYSTEM.POLAR>  (39) 
-1.0357

>  <SCORE.SYSTEM.VDW>  (39) 
-4.81476

>  <SCORE.SYSTEM.norm>  (39) 
-0.212822

>  <SCORE.heavy>  (39) 
22

>  <SCORE.norm>  (39) 
3.58012

$$$$
denovo_401
     RDKit          3D

 22 23  0  0  0  0  0  0  0  0999 V2000
  -10.1998   12.6390  -19.3118 C   0  0  0  0  0  0  0  0  0  0  0  0
  -10.7863   12.7057  -18.0187 O   0  0  0  0  0  0  0  0  0  0  0  0
  -10.1950   13.7357  -17.2233 C   0  0  0  0  0  0  0  0  0  0  0  0
   -9.4972   13.1236  -15.9890 C   0  0  2  0  0  0  0  0  0  0  0  0
   -8.6471   11.9342  -16.4225 C   0  0  0  0  0  0  0  0  0  0  0  0
   -9.2656   10.8019  -16.9740 C   0  0  0  0  0  0  0  0  0  0  0  0
   -8.5068    9.7010  -17.3751 C   0  0  0  0  0  0  0  0  0  0  0  0
   -7.1217    9.7169  -17.2293 C   0  0  0  0  0  0  0  0  0  0  0  0
   -6.4938   10.8334  -16.6822 C   0  0  0  0  0  0  0  0  0  0  0  0
   -7.2506   11.9355  -16.2801 C   0  0  0  0  0  0  0  0  0  0  0  0
  -10.4937   12.7377  -14.8662 C   0  0  2  0  0  0  0  0  0  0  0  0
  -11.3129   11.4732  -15.1448 C   0  0  0  0  0  0  0  0  0  0  0  0
  -12.6132   11.6225  -14.3488 C   0  0  0  0  0  0  0  0  0  0  0  0
  -12.6020   13.0316  -13.7501 C   0  0  2  0  0  0  0  0  0  0  0  0
  -13.9547   13.7631  -13.7075 C   0  0  0  0  0  0  0  0  0  0  0  0
  -14.1092   14.9876  -12.7417 C   0  0  0  0  0  0  0  0  0  0  0  0
  -12.7209   15.5860  -12.4365 C   0  0  0  0  0  0  0  0  0  0  0  0
  -14.9218   16.0532  -13.5204 C   0  0  0  0  0  0  0  0  0  0  0  0
  -14.8462   14.6178  -11.4158 C   0  0  1  0  0  0  0  0  0  0  0  0
  -16.1196   13.7885  -11.5849 C   0  0  0  0  0  0  0  0  0  0  0  0
  -13.9943   13.8668  -10.5492 O   0  0  0  0  0  0  0  0  0  0  0  0
  -11.5916   13.7802  -14.6294 C   0  0  0  0  0  0  0  0  0  0  0  0
  1  2  1  0
  2  3  1  0
  4  3  1  6
  4  5  1  0
  5  6  2  0
  6  7  1  0
  7  8  2  0
  8  9  1  0
  9 10  2  0
  4 11  1  0
 11 12  1  6
 12 13  1  0
 13 14  1  0
 14 15  1  6
 15 16  1  0
 16 17  1  0
 16 18  1  0
 16 19  1  0
 19 20  1  6
 19 21  1  0
 14 22  1  0
 10  5  1  0
 22 11  1  0
M  END
>  <CHROM.0>  (40) 
-148.12962967,56.58057610,-178.65859124,-179.10160480,58.88602850,-75.34302513
56.99808200,-175.19885708,-71.76853048,-58.26482829,61.65504962

>  <CHROM.1>  (40) 
-116.88513762,46.82444898,-64.00792634,74.67883466,161.69647321,23.23012752
-46.48825262,169.95339044,-11.34171047,12.89086827,-14.95908948,0.43135745
0.67532995,-1.19949330

>  <Name>  (40) 
denovo_401

>  <RI>  (40) 
-5.35378e+08

>  <Rbt.Current_Directory>  (40) 
/tmp/claude-0/-home-user-Rare-cancers/1af35c7f-7dc4-53ce-91d2-1631a2a10a85/scratchpad/smwork/cross/dock_8XTT-model20

>  <Rbt.Executable>  (40) 
rbdock - v25.07-alpha

>  <Rbt.Library>  (40) 
libRbt.so (25.07, Buildalpha)

>  <Rbt.Parameter_File>  (40) 
/tmp/claude-0/-home-user-Rare-cancers/1af35c7f-7dc4-53ce-91d2-1631a2a10a85/scratchpad/rdroot/share/rDock/data/scripts/dock.prm

>  <Rbt.Receptor>  (40) 
rec.prm

>  <SCORE>  (40) 
79.9667

>  <SCORE.INTER>  (40) 
72.7054

>  <SCORE.INTER.CONST>  (40) 
1

>  <SCORE.INTER.POLAR>  (40) 
-1.72237

>  <SCORE.INTER.REPUL>  (40) 
0.320003

>  <SCORE.INTER.ROT>  (40) 
7

>  <SCORE.INTER.VDW>  (40) 
64.5615

>  <SCORE.INTER.norm>  (40) 
3.30479

>  <SCORE.INTRA>  (40) 
12.7804

>  <SCORE.INTRA.DIHEDRAL>  (40) 
13.2089

>  <SCORE.INTRA.DIHEDRAL.0>  (40) 
3.78927

>  <SCORE.INTRA.POLAR>  (40) 
0

>  <SCORE.INTRA.POLAR.0>  (40) 
0

>  <SCORE.INTRA.REPUL>  (40) 
0

>  <SCORE.INTRA.REPUL.0>  (40) 
0

>  <SCORE.INTRA.VDW>  (40) 
6.17591

>  <SCORE.INTRA.VDW.0>  (40) 
1.02728

>  <SCORE.INTRA.norm>  (40) 
0.580925

>  <SCORE.RESTR>  (40) 
0

>  <SCORE.RESTR.CAVITY>  (40) 
0

>  <SCORE.RESTR.norm>  (40) 
0

>  <SCORE.SYSTEM>  (40) 
-5.51912

>  <SCORE.SYSTEM.CONST>  (40) 
0

>  <SCORE.SYSTEM.DIHEDRAL>  (40) 
3.32538

>  <SCORE.SYSTEM.POLAR>  (40) 
-1.5936

>  <SCORE.SYSTEM.REPUL>  (40) 
0.0279529

>  <SCORE.SYSTEM.VDW>  (40) 
-1.90333

>  <SCORE.SYSTEM.norm>  (40) 
-0.250869

>  <SCORE.heavy>  (40) 
22

>  <SCORE.norm>  (40) 
3.63485

$$$$
denovo_401
     RDKit          3D

 22 23  0  0  0  0  0  0  0  0999 V2000
  -15.7683   17.3085  -14.3740 C   0  0  0  0  0  0  0  0  0  0  0  0
  -14.7494   16.4445  -14.8596 O   0  0  0  0  0  0  0  0  0  0  0  0
  -13.8651   16.0316  -13.8151 C   0  0  0  0  0  0  0  0  0  0  0  0
  -13.8124   14.4901  -13.7378 C   0  0  2  0  0  0  0  0  0  0  0  0
  -14.3473   14.0296  -12.3862 C   0  0  0  0  0  0  0  0  0  0  0  0
  -13.7831   14.5367  -11.2058 C   0  0  0  0  0  0  0  0  0  0  0  0
  -14.2556   14.1268   -9.9579 C   0  0  0  0  0  0  0  0  0  0  0  0
  -15.2964   13.2050   -9.8735 C   0  0  0  0  0  0  0  0  0  0  0  0
  -15.8656   12.6919  -11.0366 C   0  0  0  0  0  0  0  0  0  0  0  0
  -15.3945   13.1001  -12.2858 C   0  0  0  0  0  0  0  0  0  0  0  0
  -12.3972   13.9233  -14.0181 C   0  0  2  0  0  0  0  0  0  0  0  0
  -11.6370   14.6296  -15.1455 C   0  0  0  0  0  0  0  0  0  0  0  0
  -10.6557   13.5981  -15.7107 C   0  0  0  0  0  0  0  0  0  0  0  0
  -10.9674   12.2695  -15.0167 C   0  0  2  0  0  0  0  0  0  0  0  0
  -10.8591   11.0057  -15.8874 C   0  0  0  0  0  0  0  0  0  0  0  0
   -9.6583   10.8914  -16.8880 C   0  0  0  0  0  0  0  0  0  0  0  0
   -9.8374   11.9102  -18.0320 C   0  0  0  0  0  0  0  0  0  0  0  0
   -8.3912   11.2941  -16.0913 C   0  0  0  0  0  0  0  0  0  0  0  0
   -9.4912    9.4498  -17.4639 C   0  0  1  0  0  0  0  0  0  0  0  0
  -10.5900    8.9990  -18.4269 C   0  0  0  0  0  0  0  0  0  0  0  0
   -8.2601    9.3234  -18.1776 O   0  0  0  0  0  0  0  0  0  0  0  0
  -12.3984   12.4688  -14.5002 C   0  0  0  0  0  0  0  0  0  0  0  0
  1  2  1  0
  2  3  1  0
  4  3  1  1
  4  5  1  0
  5  6  2  0
  6  7  1  0
  7  8  2  0
  8  9  1  0
  9 10  2  0
  4 11  1  0
 11 12  1  6
 12 13  1  0
 13 14  1  0
 14 15  1  6
 15 16  1  0
 16 17  1  0
 16 18  1  0
 16 19  1  0
 19 20  1  6
 19 21  1  0
 14 22  1  0
 10  5  1  0
 22 11  1  0
M  END
>  <CHROM.0>  (41) 
32.99820512,59.90206337,171.67441948,-64.99179851,-75.13860948,-75.40396547
179.43924967,-176.32134419,-69.31751100,172.82198757,171.39277523

>  <CHROM.1>  (41) 
123.90085460,-117.06378227,-54.94904118,-40.02359610,41.38901170,-69.44792213
69.54765306,73.68835718,-12.30503943,12.96997005,-14.61152737,-3.11751227
-0.89880981,2.47677556

>  <Name>  (41) 
denovo_401

>  <RI>  (41) 
-5.35378e+08

>  <Rbt.Current_Directory>  (41) 
/tmp/claude-0/-home-user-Rare-cancers/1af35c7f-7dc4-53ce-91d2-1631a2a10a85/scratchpad/smwork/cross/dock_8XTT-model20

>  <Rbt.Executable>  (41) 
rbdock - v25.07-alpha

>  <Rbt.Library>  (41) 
libRbt.so (25.07, Buildalpha)

>  <Rbt.Parameter_File>  (41) 
/tmp/claude-0/-home-user-Rare-cancers/1af35c7f-7dc4-53ce-91d2-1631a2a10a85/scratchpad/rdroot/share/rDock/data/scripts/dock.prm

>  <Rbt.Receptor>  (41) 
rec.prm

>  <SCORE>  (41) 
80.3642

>  <SCORE.INTER>  (41) 
73.4042

>  <SCORE.INTER.CONST>  (41) 
1

>  <SCORE.INTER.POLAR>  (41) 
-0.638034

>  <SCORE.INTER.REPUL>  (41) 
0

>  <SCORE.INTER.ROT>  (41) 
7

>  <SCORE.INTER.VDW>  (41) 
63.1735

>  <SCORE.INTER.norm>  (41) 
3.33655

>  <SCORE.INTRA>  (41) 
11.1104

>  <SCORE.INTRA.DIHEDRAL>  (41) 
14.1531

>  <SCORE.INTRA.DIHEDRAL.0>  (41) 
3.78927

>  <SCORE.INTRA.POLAR>  (41) 
0

>  <SCORE.INTRA.POLAR.0>  (41) 
0

>  <SCORE.INTRA.REPUL>  (41) 
0

>  <SCORE.INTRA.REPUL.0>  (41) 
0

>  <SCORE.INTRA.VDW>  (41) 
4.03378

>  <SCORE.INTRA.VDW.0>  (41) 
1.02728

>  <SCORE.INTRA.norm>  (41) 
0.505016

>  <SCORE.RESTR>  (41) 
0.0265318

>  <SCORE.RESTR.CAVITY>  (41) 
0.0265318

>  <SCORE.RESTR.norm>  (41) 
0.00120599

>  <SCORE.SYSTEM>  (41) 
-4.17688

>  <SCORE.SYSTEM.CONST>  (41) 
0

>  <SCORE.SYSTEM.DIHEDRAL>  (41) 
5.17276

>  <SCORE.SYSTEM.POLAR>  (41) 
-1.2113

>  <SCORE.SYSTEM.REPUL>  (41) 
0.306078

>  <SCORE.SYSTEM.VDW>  (41) 
-4.17524

>  <SCORE.SYSTEM.norm>  (41) 
-0.189858

>  <SCORE.heavy>  (41) 
22

>  <SCORE.norm>  (41) 
3.65292

$$$$
denovo_401
     RDKit          3D

 22 23  0  0  0  0  0  0  0  0999 V2000
  -16.1464   16.1752  -13.6745 C   0  0  0  0  0  0  0  0  0  0  0  0
  -14.8216   16.3938  -13.2081 O   0  0  0  0  0  0  0  0  0  0  0  0
  -13.8511   15.8204  -14.0871 C   0  0  0  0  0  0  0  0  0  0  0  0
  -13.7443   14.2988  -13.8456 C   0  0  2  0  0  0  0  0  0  0  0  0
  -14.2636   13.9671  -12.4508 C   0  0  0  0  0  0  0  0  0  0  0  0
  -13.6806   14.5756  -11.3290 C   0  0  0  0  0  0  0  0  0  0  0  0
  -14.1387   14.2845  -10.0429 C   0  0  0  0  0  0  0  0  0  0  0  0
  -15.1835   13.3814   -9.8614 C   0  0  0  0  0  0  0  0  0  0  0  0
  -15.7712   12.7685  -10.9655 C   0  0  0  0  0  0  0  0  0  0  0  0
  -15.3147   13.0578  -12.2526 C   0  0  0  0  0  0  0  0  0  0  0  0
  -12.3098   13.7551  -14.0680 C   0  0  2  0  0  0  0  0  0  0  0  0
  -11.5026   14.4988  -15.1371 C   0  0  0  0  0  0  0  0  0  0  0  0
  -10.4813   13.4932  -15.6778 C   0  0  0  0  0  0  0  0  0  0  0  0
  -10.8112   12.1437  -15.0344 C   0  0  2  0  0  0  0  0  0  0  0  0
  -10.6434   10.9042  -15.9302 C   0  0  0  0  0  0  0  0  0  0  0  0
   -9.4980   10.9079  -16.9998 C   0  0  0  0  0  0  0  0  0  0  0  0
   -8.3183   11.7628  -16.4937 C   0  0  0  0  0  0  0  0  0  0  0  0
   -9.0054    9.4426  -17.1115 C   0  0  0  0  0  0  0  0  0  0  0  0
   -9.9803   11.4169  -18.3948 C   0  0  1  0  0  0  0  0  0  0  0  0
  -10.2275   12.9227  -18.4918 C   0  0  0  0  0  0  0  0  0  0  0  0
   -9.0266   11.1040  -19.4114 O   0  0  0  0  0  0  0  0  0  0  0  0
  -12.2688   12.3137  -14.5862 C   0  0  0  0  0  0  0  0  0  0  0  0
  1  2  1  0
  2  3  1  0
  4  3  1  1
  4  5  1  0
  5  6  2  0
  6  7  1  0
  7  8  2  0
  8  9  1  0
  9 10  2  0
  4 11  1  0
 11 12  1  6
 12 13  1  0
 13 14  1  0
 14 15  1  6
 15 16  1  0
 16 17  1  0
 16 18  1  0
 16 19  1  0
 19 20  1  1
 19 21  1  0
 14 22  1  0
 10  5  1  0
 22 11  1  0
M  END
>  <CHROM.0>  (42) 
-159.09570365,66.68380456,105.33096213,-178.27342869,-171.25915253,52.91183455
177.97421481,-52.87365959,71.27332467,-59.08656064,178.04966880

>  <CHROM.1>  (42) 
-79.19058690,-21.65766558,-57.58450929,-31.74584265,33.73547432,30.48010274
73.48673720,-56.00025041,-12.25283894,13.15374259,-14.61277518,2.92144526
-0.85882972,2.34291920

>  <Name>  (42) 
denovo_401

>  <RI>  (42) 
-5.35378e+08

>  <Rbt.Current_Directory>  (42) 
/tmp/claude-0/-home-user-Rare-cancers/1af35c7f-7dc4-53ce-91d2-1631a2a10a85/scratchpad/smwork/cross/dock_8XTT-model20

>  <Rbt.Executable>  (42) 
rbdock - v25.07-alpha

>  <Rbt.Library>  (42) 
libRbt.so (25.07, Buildalpha)

>  <Rbt.Parameter_File>  (42) 
/tmp/claude-0/-home-user-Rare-cancers/1af35c7f-7dc4-53ce-91d2-1631a2a10a85/scratchpad/rdroot/share/rDock/data/scripts/dock.prm

>  <Rbt.Receptor>  (42) 
rec.prm

>  <SCORE>  (42) 
96.7451

>  <SCORE.INTER>  (42) 
79.1072

>  <SCORE.INTER.CONST>  (42) 
1

>  <SCORE.INTER.POLAR>  (42) 
0

>  <SCORE.INTER.REPUL>  (42) 
0

>  <SCORE.INTER.ROT>  (42) 
7

>  <SCORE.INTER.VDW>  (42) 
66.7072

>  <SCORE.INTER.norm>  (42) 
3.59578

>  <SCORE.INTRA>  (42) 
16.1059

>  <SCORE.INTRA.DIHEDRAL>  (42) 
12.316

>  <SCORE.INTRA.DIHEDRAL.0>  (42) 
3.78927

>  <SCORE.INTRA.POLAR>  (42) 
0

>  <SCORE.INTRA.POLAR.0>  (42) 
0

>  <SCORE.INTRA.REPUL>  (42) 
0

>  <SCORE.INTRA.REPUL.0>  (42) 
0

>  <SCORE.INTRA.VDW>  (42) 
9.94788

>  <SCORE.INTRA.VDW.0>  (42) 
1.02728

>  <SCORE.INTRA.norm>  (42) 
0.732087

>  <SCORE.RESTR>  (42) 
0.55521

>  <SCORE.RESTR.CAVITY>  (42) 
0.55521

>  <SCORE.RESTR.norm>  (42) 
0.0252368

>  <SCORE.SYSTEM>  (42) 
0.976723

>  <SCORE.SYSTEM.CONST>  (42) 
0

>  <SCORE.SYSTEM.DIHEDRAL>  (42) 
8.42535

>  <SCORE.SYSTEM.POLAR>  (42) 
-0.125379

>  <SCORE.SYSTEM.REPUL>  (42) 
0.200368

>  <SCORE.SYSTEM.VDW>  (42) 
-3.8115

>  <SCORE.SYSTEM.norm>  (42) 
0.0443965

>  <SCORE.heavy>  (42) 
22

>  <SCORE.norm>  (42) 
4.3975

$$$$
denovo_401
     RDKit          3D

 22 23  0  0  0  0  0  0  0  0999 V2000
  -18.1578   17.4112  -14.4268 C   0  0  0  0  0  0  0  0  0  0  0  0
  -17.7666   16.4600  -13.4457 O   0  0  0  0  0  0  0  0  0  0  0  0
  -16.3483   16.2838  -13.4173 C   0  0  0  0  0  0  0  0  0  0  0  0
  -15.9963   14.8600  -12.9334 C   0  0  2  0  0  0  0  0  0  0  0  0
  -15.3567   14.9357  -11.5513 C   0  0  0  0  0  0  0  0  0  0  0  0
  -15.9463   15.7285  -10.5549 C   0  0  0  0  0  0  0  0  0  0  0  0
  -15.3762   15.8143   -9.2836 C   0  0  0  0  0  0  0  0  0  0  0  0
  -14.2101   15.1105   -8.9922 C   0  0  0  0  0  0  0  0  0  0  0  0
  -13.6127   14.3204   -9.9715 C   0  0  0  0  0  0  0  0  0  0  0  0
  -14.1808   14.2333  -11.2438 C   0  0  0  0  0  0  0  0  0  0  0  0
  -15.1024   14.0888  -13.9378 C   0  0  2  0  0  0  0  0  0  0  0  0
  -15.0313   12.5767  -13.7006 C   0  0  0  0  0  0  0  0  0  0  0  0
  -13.6873   12.1170  -14.2741 C   0  0  0  0  0  0  0  0  0  0  0  0
  -12.9318   13.3821  -14.6900 C   0  0  2  0  0  0  0  0  0  0  0  0
  -11.4131   13.3787  -14.4445 C   0  0  0  0  0  0  0  0  0  0  0  0
  -10.5074   12.5205  -15.3928 C   0  0  0  0  0  0  0  0  0  0  0  0
   -9.0405   12.6022  -14.9233 C   0  0  0  0  0  0  0  0  0  0  0  0
  -10.9753   11.0523  -15.2263 C   0  0  0  0  0  0  0  0  0  0  0  0
  -10.6251   12.9521  -16.8887 C   0  0  1  0  0  0  0  0  0  0  0  0
   -9.2967   13.1997  -17.6044 C   0  0  0  0  0  0  0  0  0  0  0  0
  -11.3111   11.9604  -17.6549 O   0  0  0  0  0  0  0  0  0  0  0  0
  -13.6240   14.4877  -13.8819 C   0  0  0  0  0  0  0  0  0  0  0  0
  1  2  1  0
  2  3  1  0
  4  3  1  6
  4  5  1  0
  5  6  2  0
  6  7  1  0
  7  8  2  0
  8  9  1  0
  9 10  2  0
  4 11  1  0
 11 12  1  1
 12 13  1  0
 13 14  1  0
 14 15  1  1
 15 16  1  0
 16 17  1  0
 16 18  1  0
 16 19  1  0
 19 20  1  6
 19 21  1  0
 14 22  1  0
 10  5  1  0
 22 11  1  0
M  END
>  <CHROM.0>  (43) 
-152.14582641,-57.08529241,-62.37186548,-178.19762948,-79.14270522,-77.27137897
174.37120077,-56.11092219,-71.27890853,-63.65483064,61.83655696

>  <CHROM.1>  (43) 
-151.76320643,-110.69615808,46.88914547,-164.46924233,74.34754804,-177.00414019
129.61894919,-67.20305617,-13.62994729,14.04433864,-13.67728477,2.51214951
-0.50183853,1.52090006

>  <Name>  (43) 
denovo_401

>  <RI>  (43) 
-5.35378e+08

>  <Rbt.Current_Directory>  (43) 
/tmp/claude-0/-home-user-Rare-cancers/1af35c7f-7dc4-53ce-91d2-1631a2a10a85/scratchpad/smwork/cross/dock_8XTT-model20

>  <Rbt.Executable>  (43) 
rbdock - v25.07-alpha

>  <Rbt.Library>  (43) 
libRbt.so (25.07, Buildalpha)

>  <Rbt.Parameter_File>  (43) 
/tmp/claude-0/-home-user-Rare-cancers/1af35c7f-7dc4-53ce-91d2-1631a2a10a85/scratchpad/rdroot/share/rDock/data/scripts/dock.prm

>  <Rbt.Receptor>  (43) 
rec.prm

>  <SCORE>  (43) 
96.9529

>  <SCORE.INTER>  (43) 
83.4483

>  <SCORE.INTER.CONST>  (43) 
1

>  <SCORE.INTER.POLAR>  (43) 
-0.478012

>  <SCORE.INTER.REPUL>  (43) 
0

>  <SCORE.INTER.ROT>  (43) 
7

>  <SCORE.INTER.VDW>  (43) 
72.6736

>  <SCORE.INTER.norm>  (43) 
3.79311

>  <SCORE.INTRA>  (43) 
20.5124

>  <SCORE.INTRA.DIHEDRAL>  (43) 
13.2216

>  <SCORE.INTRA.DIHEDRAL.0>  (43) 
3.78927

>  <SCORE.INTRA.POLAR>  (43) 
0

>  <SCORE.INTRA.POLAR.0>  (43) 
0

>  <SCORE.INTRA.REPUL>  (43) 
0

>  <SCORE.INTRA.REPUL.0>  (43) 
0

>  <SCORE.INTRA.VDW>  (43) 
13.9016

>  <SCORE.INTRA.VDW.0>  (43) 
1.02728

>  <SCORE.INTRA.norm>  (43) 
0.932382

>  <SCORE.RESTR>  (43) 
0

>  <SCORE.RESTR.CAVITY>  (43) 
0

>  <SCORE.RESTR.norm>  (43) 
0

>  <SCORE.SYSTEM>  (43) 
-7.00779

>  <SCORE.SYSTEM.CONST>  (43) 
0

>  <SCORE.SYSTEM.DIHEDRAL>  (43) 
5.00428

>  <SCORE.SYSTEM.POLAR>  (43) 
-1.92751

>  <SCORE.SYSTEM.REPUL>  (43) 
0.0126129

>  <SCORE.SYSTEM.VDW>  (43) 
-3.01946

>  <SCORE.SYSTEM.norm>  (43) 
-0.318536

>  <SCORE.heavy>  (43) 
22

>  <SCORE.norm>  (43) 
4.40695

$$$$
denovo_401
     RDKit          3D

 22 23  0  0  0  0  0  0  0  0999 V2000
  -16.5960   16.4710  -13.8673 C   0  0  0  0  0  0  0  0  0  0  0  0
  -15.4640   16.8733  -13.1075 O   0  0  0  0  0  0  0  0  0  0  0  0
  -14.2408   16.5737  -13.7836 C   0  0  0  0  0  0  0  0  0  0  0  0
  -13.9616   15.0555  -13.7356 C   0  0  2  0  0  0  0  0  0  0  0  0
  -14.2796   14.5233  -12.3425 C   0  0  0  0  0  0  0  0  0  0  0  0
  -13.6348   15.0734  -11.2242 C   0  0  0  0  0  0  0  0  0  0  0  0
  -13.9089   14.5996   -9.9401 C   0  0  0  0  0  0  0  0  0  0  0  0
  -14.8291   13.5702   -9.7571 C   0  0  0  0  0  0  0  0  0  0  0  0
  -15.4761   13.0133  -10.8578 C   0  0  0  0  0  0  0  0  0  0  0  0
  -15.2034   13.4853  -12.1431 C   0  0  0  0  0  0  0  0  0  0  0  0
  -12.5180   14.6967  -14.1712 C   0  0  2  0  0  0  0  0  0  0  0  0
  -12.0956   15.2766  -15.5251 C   0  0  0  0  0  0  0  0  0  0  0  0
  -11.0185   14.3365  -16.0753 C   0  0  0  0  0  0  0  0  0  0  0  0
  -10.9437   13.1457  -15.1159 C   0  0  2  0  0  0  0  0  0  0  0  0
  -10.7088   11.7680  -15.7592 C   0  0  0  0  0  0  0  0  0  0  0  0
   -9.4104   11.5554  -16.6107 C   0  0  0  0  0  0  0  0  0  0  0  0
   -8.2136   12.2293  -15.9091 C   0  0  0  0  0  0  0  0  0  0  0  0
   -9.1489   10.0278  -16.6272 C   0  0  0  0  0  0  0  0  0  0  0  0
   -9.5558   12.0881  -18.0712 C   0  0  1  0  0  0  0  0  0  0  0  0
  -10.8104   11.6269  -18.8136 C   0  0  0  0  0  0  0  0  0  0  0  0
   -9.5819   13.5163  -18.0948 O   0  0  0  0  0  0  0  0  0  0  0  0
  -12.2920   13.1963  -14.3853 C   0  0  0  0  0  0  0  0  0  0  0  0
  1  2  1  0
  2  3  1  0
  4  3  1  1
  4  5  1  0
  5  6  2  0
  6  7  1  0
  7  8  2  0
  8  9  1  0
  9 10  2  0
  4 11  1  0
 11 12  1  6
 12 13  1  0
 13 14  1  0
 14 15  1  6
 15 16  1  0
 16 17  1  0
 16 18  1  0
 16 19  1  0
 19 20  1  1
 19 21  1  0
 14 22  1  0
 10  5  1  0
 22 11  1  0
M  END
>  <CHROM.0>  (44) 
-161.13739470,-49.22321270,-59.60287423,-64.07737445,56.46746370,-74.69560523
171.22864937,-48.44968957,-72.20328835,62.82090596,84.87654258

>  <CHROM.1>  (44) 
-73.64224010,-42.41646891,-57.25001133,-52.39218715,59.17239679,41.26470663
-49.69831622,68.76563935,-12.40309629,13.76913515,-14.45880094,2.80422997
-0.79878107,2.16811058

>  <Name>  (44) 
denovo_401

>  <RI>  (44) 
-5.35378e+08

>  <Rbt.Current_Directory>  (44) 
/tmp/claude-0/-home-user-Rare-cancers/1af35c7f-7dc4-53ce-91d2-1631a2a10a85/scratchpad/smwork/cross/dock_8XTT-model20

>  <Rbt.Executable>  (44) 
rbdock - v25.07-alpha

>  <Rbt.Library>  (44) 
libRbt.so (25.07, Buildalpha)

>  <Rbt.Parameter_File>  (44) 
/tmp/claude-0/-home-user-Rare-cancers/1af35c7f-7dc4-53ce-91d2-1631a2a10a85/scratchpad/rdroot/share/rDock/data/scripts/dock.prm

>  <Rbt.Receptor>  (44) 
rec.prm

>  <SCORE>  (44) 
105.6760

>  <SCORE.INTER>  (44) 
101.367

>  <SCORE.INTER.CONST>  (44) 
1

>  <SCORE.INTER.POLAR>  (44) 
0

>  <SCORE.INTER.REPUL>  (44) 
0

>  <SCORE.INTER.ROT>  (44) 
7

>  <SCORE.INTER.VDW>  (44) 
88.9665

>  <SCORE.INTER.norm>  (44) 
4.60757

>  <SCORE.INTRA>  (44) 
3.88881

>  <SCORE.INTRA.DIHEDRAL>  (44) 
1.94316

>  <SCORE.INTRA.DIHEDRAL.0>  (44) 
3.78927

>  <SCORE.INTRA.POLAR>  (44) 
0

>  <SCORE.INTRA.POLAR.0>  (44) 
0

>  <SCORE.INTRA.REPUL>  (44) 
0

>  <SCORE.INTRA.REPUL.0>  (44) 
0

>  <SCORE.INTRA.VDW>  (44) 
2.91723

>  <SCORE.INTRA.VDW.0>  (44) 
1.02728

>  <SCORE.INTRA.norm>  (44) 
0.176764

>  <SCORE.RESTR>  (44) 
0.0374218

>  <SCORE.RESTR.CAVITY>  (44) 
0.0374218

>  <SCORE.RESTR.norm>  (44) 
0.00170099

>  <SCORE.SYSTEM>  (44) 
0.382918

>  <SCORE.SYSTEM.CONST>  (44) 
0

>  <SCORE.SYSTEM.DIHEDRAL>  (44) 
6.168

>  <SCORE.SYSTEM.POLAR>  (44) 
-1.27024

>  <SCORE.SYSTEM.REPUL>  (44) 
0.332132

>  <SCORE.SYSTEM.VDW>  (44) 
-0.0429297

>  <SCORE.SYSTEM.norm>  (44) 
0.0174054

>  <SCORE.heavy>  (44) 
22

>  <SCORE.norm>  (44) 
4.80344

$$$$
denovo_401
     RDKit          3D

 22 23  0  0  0  0  0  0  0  0999 V2000
  -16.1681   17.6066  -14.7527 C   0  0  0  0  0  0  0  0  0  0  0  0
  -14.8193   17.1931  -14.9264 O   0  0  0  0  0  0  0  0  0  0  0  0
  -14.2391   16.7539  -13.6961 C   0  0  0  0  0  0  0  0  0  0  0  0
  -14.9381   15.4674  -13.2048 C   0  0  2  0  0  0  0  0  0  0  0  0
  -14.6888   15.2914  -11.7109 C   0  0  0  0  0  0  0  0  0  0  0  0
  -15.5889   15.8424  -10.7862 C   0  0  0  0  0  0  0  0  0  0  0  0
  -15.3785   15.6956   -9.4140 C   0  0  0  0  0  0  0  0  0  0  0  0
  -14.2666   14.9978   -8.9486 C   0  0  0  0  0  0  0  0  0  0  0  0
  -13.3636   14.4463   -9.8546 C   0  0  0  0  0  0  0  0  0  0  0  0
  -13.5717   14.5921  -11.2273 C   0  0  0  0  0  0  0  0  0  0  0  0
  -14.5165   14.2110  -14.0089 C   0  0  2  0  0  0  0  0  0  0  0  0
  -14.8501   12.8772  -13.3327 C   0  0  0  0  0  0  0  0  0  0  0  0
  -13.8339   11.8622  -13.8653 C   0  0  0  0  0  0  0  0  0  0  0  0
  -12.8320   12.6487  -14.7149 C   0  0  2  0  0  0  0  0  0  0  0  0
  -11.3638   12.1981  -14.6259 C   0  0  0  0  0  0  0  0  0  0  0  0
  -10.4805   12.2785  -15.9180 C   0  0  0  0  0  0  0  0  0  0  0  0
  -10.4559   13.7295  -16.4402 C   0  0  0  0  0  0  0  0  0  0  0  0
   -9.0398   11.9097  -15.4811 C   0  0  0  0  0  0  0  0  0  0  0  0
  -10.9645   11.3047  -17.0383 C   0  0  1  0  0  0  0  0  0  0  0  0
   -9.9693   11.0694  -18.1751 C   0  0  0  0  0  0  0  0  0  0  0  0
  -11.2666   10.0160  -16.5008 O   0  0  0  0  0  0  0  0  0  0  0  0
  -13.0032   14.0901  -14.2176 C   0  0  0  0  0  0  0  0  0  0  0  0
  1  2  1  0
  2  3  1  0
  4  3  1  6
  4  5  1  0
  5  6  2  0
  6  7  1  0
  7  8  2  0
  8  9  1  0
  9 10  2  0
  4 11  1  0
 11 12  1  1
 12 13  1  0
 13 14  1  0
 14 15  1  1
 15 16  1  0
 16 17  1  0
 16 18  1  0
 16 19  1  0
 19 20  1  6
 19 21  1  0
 14 22  1  0
 10  5  1  0
 22 11  1  0
M  END
>  <CHROM.0>  (45) 
18.43222169,-60.93559237,173.41395853,127.20537492,59.60026202,47.32642576
-67.63794748,-59.26908557,68.50554946,-62.63467316,63.60313691

>  <CHROM.1>  (45) 
66.05710912,-159.72674614,90.51616229,163.30371774,144.51133745,57.93732086
-165.37249698,-59.63384632,-13.11449211,13.87880361,-13.87880572,2.67675419
-0.90085458,1.86988983

>  <Name>  (45) 
denovo_401

>  <RI>  (45) 
-5.35378e+08

>  <Rbt.Current_Directory>  (45) 
/tmp/claude-0/-home-user-Rare-cancers/1af35c7f-7dc4-53ce-91d2-1631a2a10a85/scratchpad/smwork/cross/dock_8XTT-model20

>  <Rbt.Executable>  (45) 
rbdock - v25.07-alpha

>  <Rbt.Library>  (45) 
libRbt.so (25.07, Buildalpha)

>  <Rbt.Parameter_File>  (45) 
/tmp/claude-0/-home-user-Rare-cancers/1af35c7f-7dc4-53ce-91d2-1631a2a10a85/scratchpad/rdroot/share/rDock/data/scripts/dock.prm

>  <Rbt.Receptor>  (45) 
rec.prm

>  <SCORE>  (45) 
107.7870

>  <SCORE.INTER>  (45) 
101.665

>  <SCORE.INTER.CONST>  (45) 
1

>  <SCORE.INTER.POLAR>  (45) 
-1.36343

>  <SCORE.INTER.REPUL>  (45) 
0.0201987

>  <SCORE.INTER.ROT>  (45) 
7

>  <SCORE.INTER.VDW>  (45) 
93.7996

>  <SCORE.INTER.norm>  (45) 
4.62113

>  <SCORE.INTRA>  (45) 
6.68424

>  <SCORE.INTRA.DIHEDRAL>  (45) 
4.68425

>  <SCORE.INTRA.DIHEDRAL.0>  (45) 
3.78927

>  <SCORE.INTRA.POLAR>  (45) 
0

>  <SCORE.INTRA.POLAR.0>  (45) 
0

>  <SCORE.INTRA.REPUL>  (45) 
0

>  <SCORE.INTRA.REPUL.0>  (45) 
0

>  <SCORE.INTRA.VDW>  (45) 
4.34211

>  <SCORE.INTRA.VDW.0>  (45) 
1.02728

>  <SCORE.INTRA.norm>  (45) 
0.303829

>  <SCORE.RESTR>  (45) 
0

>  <SCORE.RESTR.CAVITY>  (45) 
0

>  <SCORE.RESTR.norm>  (45) 
0

>  <SCORE.SYSTEM>  (45) 
-0.5619

>  <SCORE.SYSTEM.CONST>  (45) 
0

>  <SCORE.SYSTEM.DIHEDRAL>  (45) 
9.01186

>  <SCORE.SYSTEM.POLAR>  (45) 
-1.48953

>  <SCORE.SYSTEM.REPUL>  (45) 
0.0591312

>  <SCORE.SYSTEM.VDW>  (45) 
-0.299091

>  <SCORE.SYSTEM.norm>  (45) 
-0.0255409

>  <SCORE.heavy>  (45) 
22

>  <SCORE.norm>  (45) 
4.89942

$$$$
denovo_401
     RDKit          3D

 22 23  0  0  0  0  0  0  0  0999 V2000
  -15.1502   17.7713  -15.4918 C   0  0  0  0  0  0  0  0  0  0  0  0
  -15.9297   16.7185  -14.9400 O   0  0  0  0  0  0  0  0  0  0  0  0
  -15.8105   16.6634  -13.5166 C   0  0  0  0  0  0  0  0  0  0  0  0
  -15.7105   15.1962  -13.0451 C   0  0  2  0  0  0  0  0  0  0  0  0
  -15.1924   15.1564  -11.6115 C   0  0  0  0  0  0  0  0  0  0  0  0
  -14.0051   14.4678  -11.3203 C   0  0  0  0  0  0  0  0  0  0  0  0
  -13.5142   14.4164  -10.0145 C   0  0  0  0  0  0  0  0  0  0  0  0
  -14.2033   15.0510   -8.9838 C   0  0  0  0  0  0  0  0  0  0  0  0
  -15.3841   15.7374   -9.2574 C   0  0  0  0  0  0  0  0  0  0  0  0
  -15.8772   15.7899  -10.5624 C   0  0  0  0  0  0  0  0  0  0  0  0
  -14.8504   14.3193  -13.9906 C   0  0  2  0  0  0  0  0  0  0  0  0
  -14.6753   12.8674  -13.5334 C   0  0  0  0  0  0  0  0  0  0  0  0
  -13.3531   12.3855  -14.1384 C   0  0  0  0  0  0  0  0  0  0  0  0
  -12.7043   13.6033  -14.8017 C   0  0  2  0  0  0  0  0  0  0  0  0
  -11.1739   13.7071  -14.6836 C   0  0  0  0  0  0  0  0  0  0  0  0
  -10.2921   12.8477  -15.6531 C   0  0  0  0  0  0  0  0  0  0  0  0
  -10.7329   11.3713  -15.5840 C   0  0  0  0  0  0  0  0  0  0  0  0
  -10.5926   13.3636  -17.0834 C   0  0  0  0  0  0  0  0  0  0  0  0
   -8.7659   12.9750  -15.3492 C   0  0  1  0  0  0  0  0  0  0  0  0
   -8.3618   12.6941  -13.9016 C   0  0  0  0  0  0  0  0  0  0  0  0
   -8.0065   12.0735  -16.1564 O   0  0  0  0  0  0  0  0  0  0  0  0
  -13.3972   14.7887  -14.1169 C   0  0  0  0  0  0  0  0  0  0  0  0
  1  2  1  0
  2  3  1  0
  4  3  1  6
  4  5  1  0
  5  6  2  0
  6  7  1  0
  7  8  2  0
  8  9  1  0
  9 10  2  0
  4 11  1  0
 11 12  1  1
 12 13  1  0
 13 14  1  0
 14 15  1  1
 15 16  1  0
 16 17  1  0
 16 18  1  0
 16 19  1  0
 19 20  1  1
 19 21  1  0
 14 22  1  0
 10  5  1  0
 22 11  1  0
M  END
>  <CHROM.0>  (46) 
-155.75582778,59.27922913,-64.51103921,-176.71439618,-75.75620160,54.87354622
-60.11047059,-53.97384400,69.56430386,70.21061232,62.30351104

>  <CHROM.1>  (46) 
-139.08686176,163.96407251,-120.78097885,177.64801014,79.79970448,-52.42222311
53.10896122,-62.85008257,-13.00167261,14.24947712,-13.64033482,2.69038582
-0.57009458,1.72703194

>  <Name>  (46) 
denovo_401

>  <RI>  (46) 
-5.35378e+08

>  <Rbt.Current_Directory>  (46) 
/tmp/claude-0/-home-user-Rare-cancers/1af35c7f-7dc4-53ce-91d2-1631a2a10a85/scratchpad/smwork/cross/dock_8XTT-model20

>  <Rbt.Executable>  (46) 
rbdock - v25.07-alpha

>  <Rbt.Library>  (46) 
libRbt.so (25.07, Buildalpha)

>  <Rbt.Parameter_File>  (46) 
/tmp/claude-0/-home-user-Rare-cancers/1af35c7f-7dc4-53ce-91d2-1631a2a10a85/scratchpad/rdroot/share/rDock/data/scripts/dock.prm

>  <Rbt.Receptor>  (46) 
rec.prm

>  <SCORE>  (46) 
122.3110

>  <SCORE.INTER>  (46) 
117.084

>  <SCORE.INTER.CONST>  (46) 
1

>  <SCORE.INTER.POLAR>  (46) 
-0.953345

>  <SCORE.INTER.REPUL>  (46) 
0

>  <SCORE.INTER.ROT>  (46) 
7

>  <SCORE.INTER.VDW>  (46) 
107.925

>  <SCORE.INTER.norm>  (46) 
5.32198

>  <SCORE.INTRA>  (46) 
8.85265

>  <SCORE.INTRA.DIHEDRAL>  (46) 
5.63713

>  <SCORE.INTRA.DIHEDRAL.0>  (46) 
3.78927

>  <SCORE.INTRA.POLAR>  (46) 
0

>  <SCORE.INTRA.POLAR.0>  (46) 
0

>  <SCORE.INTRA.REPUL>  (46) 
0

>  <SCORE.INTRA.REPUL.0>  (46) 
0

>  <SCORE.INTRA.VDW>  (46) 
6.03408

>  <SCORE.INTRA.VDW.0>  (46) 
1.02728

>  <SCORE.INTRA.norm>  (46) 
0.402393

>  <SCORE.RESTR>  (46) 
0.0866392

>  <SCORE.RESTR.CAVITY>  (46) 
0.0866392

>  <SCORE.RESTR.norm>  (46) 
0.00393815

>  <SCORE.SYSTEM>  (46) 
-3.71189

>  <SCORE.SYSTEM.CONST>  (46) 
0

>  <SCORE.SYSTEM.DIHEDRAL>  (46) 
3.40829

>  <SCORE.SYSTEM.POLAR>  (46) 
-0.890897

>  <SCORE.SYSTEM.REPUL>  (46) 
0.151639

>  <SCORE.SYSTEM.VDW>  (46) 
-3.14518

>  <SCORE.SYSTEM.norm>  (46) 
-0.168722

>  <SCORE.heavy>  (46) 
22

>  <SCORE.norm>  (46) 
5.55959

$$$$
denovo_401
     RDKit          3D

 22 23  0  0  0  0  0  0  0  0999 V2000
  -10.2546    9.9740  -12.7177 C   0  0  0  0  0  0  0  0  0  0  0  0
  -11.0913   10.8867  -13.4158 O   0  0  0  0  0  0  0  0  0  0  0  0
  -10.3626   11.6242  -14.3999 C   0  0  0  0  0  0  0  0  0  0  0  0
  -11.2696   11.9433  -15.6085 C   0  0  2  0  0  0  0  0  0  0  0  0
  -10.4080   12.3613  -16.7951 C   0  0  0  0  0  0  0  0  0  0  0  0
  -10.1770   11.4541  -17.8403 C   0  0  0  0  0  0  0  0  0  0  0  0
   -9.3892   11.8150  -18.9348 C   0  0  0  0  0  0  0  0  0  0  0  0
   -8.8218   13.0854  -18.9983 C   0  0  0  0  0  0  0  0  0  0  0  0
   -9.0412   13.9962  -17.9676 C   0  0  0  0  0  0  0  0  0  0  0  0
   -9.8284   13.6376  -16.8719 C   0  0  0  0  0  0  0  0  0  0  0  0
  -12.3517   13.0043  -15.2831 C   0  0  2  0  0  0  0  0  0  0  0  0
  -11.8145   14.2930  -14.6520 C   0  0  0  0  0  0  0  0  0  0  0  0
  -12.9648   14.8755  -13.8249 C   0  0  0  0  0  0  0  0  0  0  0  0
  -14.0951   13.8432  -13.8572 C   0  0  2  0  0  0  0  0  0  0  0  0
  -14.8988   13.6742  -12.5563 C   0  0  0  0  0  0  0  0  0  0  0  0
  -15.4114   14.9620  -11.8249 C   0  0  0  0  0  0  0  0  0  0  0  0
  -15.8685   16.0032  -12.8668 C   0  0  0  0  0  0  0  0  0  0  0  0
  -16.6577   14.5303  -11.0108 C   0  0  0  0  0  0  0  0  0  0  0  0
  -14.3391   15.5792  -10.8726 C   0  0  1  0  0  0  0  0  0  0  0  0
  -13.7897   14.6321   -9.8053 C   0  0  0  0  0  0  0  0  0  0  0  0
  -13.2082   16.0466  -11.6100 O   0  0  0  0  0  0  0  0  0  0  0  0
  -13.3747   12.5435  -14.2395 C   0  0  0  0  0  0  0  0  0  0  0  0
  1  2  1  0
  2  3  1  0
  4  3  1  1
  4  5  1  0
  5  6  2  0
  6  7  1  0
  7  8  2  0
  8  9  1  0
  9 10  2  0
  4 11  1  0
 11 12  1  1
 12 13  1  0
 13 14  1  0
 14 15  1  1
 15 16  1  0
 16 17  1  0
 16 18  1  0
 16 19  1  0
 19 20  1  1
 19 21  1  0
 14 22  1  0
 10  5  1  0
 22 11  1  0
M  END
>  <CHROM.0>  (47) 
27.73716631,57.83656556,-60.35669230,73.80845122,-77.69720639,-75.77042845
-63.63044290,-58.02365659,-70.50031104,-176.35012077,174.81009341

>  <CHROM.1>  (47) 
147.44967022,-163.89558242,103.22088774,51.98268436,47.58332041,38.27701919
-56.10318917,-167.34396053,-12.29826345,13.41766985,-14.23426498,-0.33680996
-0.84228483,2.27117278

>  <Name>  (47) 
denovo_401

>  <RI>  (47) 
-5.35378e+08

>  <Rbt.Current_Directory>  (47) 
/tmp/claude-0/-home-user-Rare-cancers/1af35c7f-7dc4-53ce-91d2-1631a2a10a85/scratchpad/smwork/cross/dock_8XTT-model20

>  <Rbt.Executable>  (47) 
rbdock - v25.07-alpha

>  <Rbt.Library>  (47) 
libRbt.so (25.07, Buildalpha)

>  <Rbt.Parameter_File>  (47) 
/tmp/claude-0/-home-user-Rare-cancers/1af35c7f-7dc4-53ce-91d2-1631a2a10a85/scratchpad/rdroot/share/rDock/data/scripts/dock.prm

>  <Rbt.Receptor>  (47) 
rec.prm

>  <SCORE>  (47) 
124.7080

>  <SCORE.INTER>  (47) 
121.203

>  <SCORE.INTER.CONST>  (47) 
1

>  <SCORE.INTER.POLAR>  (47) 
-1.30521

>  <SCORE.INTER.REPUL>  (47) 
0.0012265

>  <SCORE.INTER.ROT>  (47) 
7

>  <SCORE.INTER.VDW>  (47) 
113.235

>  <SCORE.INTER.norm>  (47) 
5.50923

>  <SCORE.INTRA>  (47) 
8.67896

>  <SCORE.INTRA.DIHEDRAL>  (47) 
6.21834

>  <SCORE.INTRA.DIHEDRAL.0>  (47) 
3.78927

>  <SCORE.INTRA.POLAR>  (47) 
0

>  <SCORE.INTRA.POLAR.0>  (47) 
0

>  <SCORE.INTRA.REPUL>  (47) 
0

>  <SCORE.INTRA.REPUL.0>  (47) 
0

>  <SCORE.INTRA.VDW>  (47) 
5.56979

>  <SCORE.INTRA.VDW.0>  (47) 
1.02728

>  <SCORE.INTRA.norm>  (47) 
0.394498

>  <SCORE.RESTR>  (47) 
0.145429

>  <SCORE.RESTR.CAVITY>  (47) 
0.145429

>  <SCORE.RESTR.norm>  (47) 
0.0066104

>  <SCORE.SYSTEM>  (47) 
-5.31942

>  <SCORE.SYSTEM.CONST>  (47) 
0

>  <SCORE.SYSTEM.DIHEDRAL>  (47) 
5.34224

>  <SCORE.SYSTEM.POLAR>  (47) 
-1.64368

>  <SCORE.SYSTEM.REPUL>  (47) 
0.0729882

>  <SCORE.SYSTEM.VDW>  (47) 
-2.76697

>  <SCORE.SYSTEM.norm>  (47) 
-0.241792

>  <SCORE.heavy>  (47) 
22

>  <SCORE.norm>  (47) 
5.66855

$$$$
denovo_401
     RDKit          3D

 22 23  0  0  0  0  0  0  0  0999 V2000
  -10.0333   10.1680  -11.7389 C   0  0  0  0  0  0  0  0  0  0  0  0
  -10.6860   10.5983  -12.9260 O   0  0  0  0  0  0  0  0  0  0  0  0
   -9.8292   10.4975  -14.0658 C   0  0  0  0  0  0  0  0  0  0  0  0
  -10.6284   10.7635  -15.3602 C   0  0  2  0  0  0  0  0  0  0  0  0
   -9.6644   10.9111  -16.5323 C   0  0  0  0  0  0  0  0  0  0  0  0
   -9.6632   12.0941  -17.2868 C   0  0  0  0  0  0  0  0  0  0  0  0
   -8.7909   12.2494  -18.3656 C   0  0  0  0  0  0  0  0  0  0  0  0
   -7.9102   11.2250  -18.7046 C   0  0  0  0  0  0  0  0  0  0  0  0
   -7.9008   10.0443  -17.9657 C   0  0  0  0  0  0  0  0  0  0  0  0
   -8.7724    9.8866  -16.8866 C   0  0  0  0  0  0  0  0  0  0  0  0
  -11.5765   11.9839  -15.2399 C   0  0  2  0  0  0  0  0  0  0  0  0
  -10.9324   13.2375  -14.6390 C   0  0  0  0  0  0  0  0  0  0  0  0
  -12.0707   14.0369  -13.9971 C   0  0  0  0  0  0  0  0  0  0  0  0
  -13.3267   13.1666  -14.0934 C   0  0  2  0  0  0  0  0  0  0  0  0
  -14.2830   13.2175  -12.8894 C   0  0  0  0  0  0  0  0  0  0  0  0
  -14.5913   14.6109  -12.2416 C   0  0  0  0  0  0  0  0  0  0  0  0
  -16.0261   14.6140  -11.6758 C   0  0  0  0  0  0  0  0  0  0  0  0
  -13.6131   14.7595  -11.0485 C   0  0  0  0  0  0  0  0  0  0  0  0
  -14.3978   15.7944  -13.2414 C   0  0  1  0  0  0  0  0  0  0  0  0
  -15.5590   16.0308  -14.2076 C   0  0  0  0  0  0  0  0  0  0  0  0
  -14.2027   17.0262  -12.5447 O   0  0  0  0  0  0  0  0  0  0  0  0
  -12.7624   11.7544  -14.2969 C   0  0  0  0  0  0  0  0  0  0  0  0
  1  2  1  0
  2  3  1  0
  4  3  1  1
  4  5  1  0
  5  6  2  0
  6  7  1  0
  7  8  2  0
  8  9  1  0
  9 10  2  0
  4 11  1  0
 11 12  1  1
 12 13  1  0
 13 14  1  0
 14 15  1  1
 15 16  1  0
 16 17  1  0
 16 18  1  0
 16 19  1  0
 19 20  1  6
 19 21  1  0
 14 22  1  0
 10  5  1  0
 22 11  1  0
M  END
>  <CHROM.0>  (48) 
31.41443349,60.88968814,-60.12718792,117.05394727,-72.21393623,-75.44148946
56.46090991,38.47888505,-72.23434055,-61.93947196,-61.85466555

>  <CHROM.1>  (48) 
171.35696940,169.48079109,-121.68942004,47.41777509,42.71342925,148.37832530
80.41905124,174.96475110,-11.77209451,12.73587352,-14.43200221,-0.14363325
-0.81576517,2.15180143

>  <Name>  (48) 
denovo_401

>  <RI>  (48) 
-5.35378e+08

>  <Rbt.Current_Directory>  (48) 
/tmp/claude-0/-home-user-Rare-cancers/1af35c7f-7dc4-53ce-91d2-1631a2a10a85/scratchpad/smwork/cross/dock_8XTT-model20

>  <Rbt.Executable>  (48) 
rbdock - v25.07-alpha

>  <Rbt.Library>  (48) 
libRbt.so (25.07, Buildalpha)

>  <Rbt.Parameter_File>  (48) 
/tmp/claude-0/-home-user-Rare-cancers/1af35c7f-7dc4-53ce-91d2-1631a2a10a85/scratchpad/rdroot/share/rDock/data/scripts/dock.prm

>  <Rbt.Receptor>  (48) 
rec.prm

>  <SCORE>  (48) 
133.9670

>  <SCORE.INTER>  (48) 
123.66

>  <SCORE.INTER.CONST>  (48) 
1

>  <SCORE.INTER.POLAR>  (48) 
-0.440047

>  <SCORE.INTER.REPUL>  (48) 
0.00446339

>  <SCORE.INTER.ROT>  (48) 
7

>  <SCORE.INTER.VDW>  (48) 
112.734

>  <SCORE.INTER.norm>  (48) 
5.6209

>  <SCORE.INTRA>  (48) 
7.69013

>  <SCORE.INTRA.DIHEDRAL>  (48) 
5.36791

>  <SCORE.INTRA.DIHEDRAL.0>  (48) 
3.78927

>  <SCORE.INTRA.POLAR>  (48) 
0

>  <SCORE.INTRA.POLAR.0>  (48) 
0

>  <SCORE.INTRA.REPUL>  (48) 
0

>  <SCORE.INTRA.REPUL.0>  (48) 
0

>  <SCORE.INTRA.VDW>  (48) 
5.00618

>  <SCORE.INTRA.VDW.0>  (48) 
1.02728

>  <SCORE.INTRA.norm>  (48) 
0.349551

>  <SCORE.RESTR>  (48) 
0.0609714

>  <SCORE.RESTR.CAVITY>  (48) 
0.0609714

>  <SCORE.RESTR.norm>  (48) 
0.00277143

>  <SCORE.SYSTEM>  (48) 
2.55601

>  <SCORE.SYSTEM.CONST>  (48) 
0

>  <SCORE.SYSTEM.DIHEDRAL>  (48) 
13.1341

>  <SCORE.SYSTEM.POLAR>  (48) 
-2.25547

>  <SCORE.SYSTEM.REPUL>  (48) 
0.0392901

>  <SCORE.SYSTEM.VDW>  (48) 
3.46111

>  <SCORE.SYSTEM.norm>  (48) 
0.116182

>  <SCORE.heavy>  (48) 
22

>  <SCORE.norm>  (48) 
6.0894

$$$$
denovo_401
     RDKit          3D

 22 23  0  0  0  0  0  0  0  0999 V2000
  -17.0549   17.3508  -14.3987 C   0  0  0  0  0  0  0  0  0  0  0  0
  -16.3045   16.1437  -14.4133 O   0  0  0  0  0  0  0  0  0  0  0  0
  -15.0200   16.3132  -13.8094 C   0  0  0  0  0  0  0  0  0  0  0  0
  -14.3184   14.9464  -13.6531 C   0  0  2  0  0  0  0  0  0  0  0  0
  -14.4675   14.4590  -12.2160 C   0  0  0  0  0  0  0  0  0  0  0  0
  -13.7644   15.1036  -11.1868 C   0  0  0  0  0  0  0  0  0  0  0  0
  -13.8841   14.6723   -9.8646 C   0  0  0  0  0  0  0  0  0  0  0  0
  -14.7063   13.5918   -9.5541 C   0  0  0  0  0  0  0  0  0  0  0  0
  -15.4095   12.9412  -10.5653 C   0  0  0  0  0  0  0  0  0  0  0  0
  -15.2911   13.3705  -11.8884 C   0  0  0  0  0  0  0  0  0  0  0  0
  -12.8335   14.9799  -14.0965 C   0  0  2  0  0  0  0  0  0  0  0  0
  -12.5502   15.8616  -15.3171 C   0  0  0  0  0  0  0  0  0  0  0  0
  -11.3006   15.2788  -15.9845 C   0  0  0  0  0  0  0  0  0  0  0  0
  -10.9701   13.9821  -15.2406 C   0  0  2  0  0  0  0  0  0  0  0  0
  -10.4510   12.8177  -16.1016 C   0  0  0  0  0  0  0  0  0  0  0  0
   -9.6322   11.6802  -15.4003 C   0  0  0  0  0  0  0  0  0  0  0  0
   -8.5692   12.3026  -14.4722 C   0  0  0  0  0  0  0  0  0  0  0  0
  -10.6396   10.9064  -14.5120 C   0  0  0  0  0  0  0  0  0  0  0  0
   -8.9617   10.7063  -16.4200 C   0  0  1  0  0  0  0  0  0  0  0  0
   -9.8902   10.1489  -17.4994 C   0  0  0  0  0  0  0  0  0  0  0  0
   -7.8885   11.3481  -17.1108 O   0  0  0  0  0  0  0  0  0  0  0  0
  -12.2950   13.6209  -14.5561 C   0  0  0  0  0  0  0  0  0  0  0  0
  1  2  1  0
  2  3  1  0
  4  3  1  1
  4  5  1  0
  5  6  2  0
  6  7  1  0
  7  8  2  0
  8  9  1  0
  9 10  2  0
  4 11  1  0
 11 12  1  6
 12 13  1  0
 13 14  1  0
 14 15  1  6
 15 16  1  0
 16 17  1  0
 16 18  1  0
 16 19  1  0
 19 20  1  6
 19 21  1  0
 14 22  1  0
 10  5  1  0
 22 11  1  0
M  END
>  <CHROM.0>  (49) 
-162.77635127,-52.38235859,176.03408341,82.09164071,-75.92859255,-153.07224615
57.17345529,34.85731409,-74.16404599,-58.09378551,162.68871505

>  <CHROM.1>  (49) 
171.64529343,-100.21998956,-70.74126958,-37.17879154,158.60874337,-46.58094411
-50.27866398,168.61365044,-12.50119102,13.73394776,-14.11023654,2.94519302
-0.70810873,2.08725863

>  <Name>  (49) 
denovo_401

>  <RI>  (49) 
-5.35378e+08

>  <Rbt.Current_Directory>  (49) 
/tmp/claude-0/-home-user-Rare-cancers/1af35c7f-7dc4-53ce-91d2-1631a2a10a85/scratchpad/smwork/cross/dock_8XTT-model20

>  <Rbt.Executable>  (49) 
rbdock - v25.07-alpha

>  <Rbt.Library>  (49) 
libRbt.so (25.07, Buildalpha)

>  <Rbt.Parameter_File>  (49) 
/tmp/claude-0/-home-user-Rare-cancers/1af35c7f-7dc4-53ce-91d2-1631a2a10a85/scratchpad/rdroot/share/rDock/data/scripts/dock.prm

>  <Rbt.Receptor>  (49) 
rec.prm

>  <SCORE>  (49) 
134.9830

>  <SCORE.INTER>  (49) 
124.337

>  <SCORE.INTER.CONST>  (49) 
1

>  <SCORE.INTER.POLAR>  (49) 
-0.959166

>  <SCORE.INTER.REPUL>  (49) 
0

>  <SCORE.INTER.ROT>  (49) 
7

>  <SCORE.INTER.VDW>  (49) 
115.198

>  <SCORE.INTER.norm>  (49) 
5.65168

>  <SCORE.INTRA>  (49) 
5.13412

>  <SCORE.INTRA.DIHEDRAL>  (49) 
6.58315

>  <SCORE.INTRA.DIHEDRAL.0>  (49) 
3.78927

>  <SCORE.INTRA.POLAR>  (49) 
0

>  <SCORE.INTRA.POLAR.0>  (49) 
0

>  <SCORE.INTRA.REPUL>  (49) 
0

>  <SCORE.INTRA.REPUL.0>  (49) 
0

>  <SCORE.INTRA.VDW>  (49) 
1.84255

>  <SCORE.INTRA.VDW.0>  (49) 
1.02728

>  <SCORE.INTRA.norm>  (49) 
0.233369

>  <SCORE.RESTR>  (49) 
0.172963

>  <SCORE.RESTR.CAVITY>  (49) 
0.172963

>  <SCORE.RESTR.norm>  (49) 
0.00786195

>  <SCORE.SYSTEM>  (49) 
5.33867

>  <SCORE.SYSTEM.CONST>  (49) 
0

>  <SCORE.SYSTEM.DIHEDRAL>  (49) 
12.0606

>  <SCORE.SYSTEM.POLAR>  (49) 
-1.14982

>  <SCORE.SYSTEM.REPUL>  (49) 
0.0295677

>  <SCORE.SYSTEM.VDW>  (49) 
3.06991

>  <SCORE.SYSTEM.norm>  (49) 
0.242667

>  <SCORE.heavy>  (49) 
22

>  <SCORE.norm>  (49) 
6.13558

$$$$
denovo_401
     RDKit          3D

 22 23  0  0  0  0  0  0  0  0999 V2000
   -5.9338   10.5780  -17.0183 C   0  0  0  0  0  0  0  0  0  0  0  0
   -7.3487   10.6395  -17.1387 O   0  0  0  0  0  0  0  0  0  0  0  0
   -7.9283   11.4741  -16.1333 C   0  0  0  0  0  0  0  0  0  0  0  0
   -9.4420   11.6447  -16.3877 C   0  0  2  0  0  0  0  0  0  0  0  0
   -9.6612   12.2414  -17.7737 C   0  0  0  0  0  0  0  0  0  0  0  0
   -8.8407   13.2899  -18.2169 C   0  0  0  0  0  0  0  0  0  0  0  0
   -9.0255   13.8526  -19.4809 C   0  0  0  0  0  0  0  0  0  0  0  0
  -10.0323   13.3761  -20.3172 C   0  0  0  0  0  0  0  0  0  0  0  0
  -10.8555   12.3366  -19.8904 C   0  0  0  0  0  0  0  0  0  0  0  0
  -10.6728   11.7725  -18.6266 C   0  0  0  0  0  0  0  0  0  0  0  0
  -10.1454   12.4783  -15.2863 C   0  0  2  0  0  0  0  0  0  0  0  0
  -10.3745   11.7322  -13.9678 C   0  0  0  0  0  0  0  0  0  0  0  0
  -11.5885   12.3935  -13.3080 C   0  0  0  0  0  0  0  0  0  0  0  0
  -12.1418   13.4022  -14.3182 C   0  0  2  0  0  0  0  0  0  0  0  0
  -13.6737   13.5299  -14.3821 C   0  0  0  0  0  0  0  0  0  0  0  0
  -14.4109   14.2491  -13.2008 C   0  0  0  0  0  0  0  0  0  0  0  0
  -15.6148   15.0432  -13.7472 C   0  0  0  0  0  0  0  0  0  0  0  0
  -14.9622   13.1255  -12.2865 C   0  0  0  0  0  0  0  0  0  0  0  0
  -13.4658   15.1862  -12.3844 C   0  0  1  0  0  0  0  0  0  0  0  0
  -13.3484   16.6167  -12.9116 C   0  0  0  0  0  0  0  0  0  0  0  0
  -13.9012   15.2964  -11.0282 O   0  0  0  0  0  0  0  0  0  0  0  0
  -11.5677   12.9138  -15.6546 C   0  0  0  0  0  0  0  0  0  0  0  0
  1  2  1  0
  2  3  1  0
  4  3  1  1
  4  5  1  0
  5  6  2  0
  6  7  1  0
  7  8  2  0
  8  9  1  0
  9 10  2  0
  4 11  1  0
 11 12  1  1
 12 13  1  0
 13 14  1  0
 14 15  1  6
 15 16  1  0
 16 17  1  0
 16 18  1  0
 16 19  1  0
 19 20  1  6
 19 21  1  0
 14 22  1  0
 10  5  1  0
 22 11  1  0
M  END
>  <CHROM.0>  (50) 
-150.78089199,66.13776769,171.96734648,96.46019113,-73.09953134,-75.51290528
-58.71091247,-53.23777064,-68.51960464,-60.53356593,-178.13078201

>  <CHROM.1>  (50) 
173.70245654,-58.04655269,-42.47231886,-75.44101817,72.67544788,144.53234138
87.85331407,86.31165603,-11.15888956,13.06552241,-15.50765908,-0.64774626
-0.56191396,1.71464793

>  <Name>  (50) 
denovo_401

>  <RI>  (50) 
-5.35378e+08

>  <Rbt.Current_Directory>  (50) 
/tmp/claude-0/-home-user-Rare-cancers/1af35c7f-7dc4-53ce-91d2-1631a2a10a85/scratchpad/smwork/cross/dock_8XTT-model20

>  <Rbt.Executable>  (50) 
rbdock - v25.07-alpha

>  <Rbt.Library>  (50) 
libRbt.so (25.07, Buildalpha)

>  <Rbt.Parameter_File>  (50) 
/tmp/claude-0/-home-user-Rare-cancers/1af35c7f-7dc4-53ce-91d2-1631a2a10a85/scratchpad/rdroot/share/rDock/data/scripts/dock.prm

>  <Rbt.Receptor>  (50) 
rec.prm

>  <SCORE>  (50) 
152.7840

>  <SCORE.INTER>  (50) 
149.705

>  <SCORE.INTER.CONST>  (50) 
1

>  <SCORE.INTER.POLAR>  (50) 
0

>  <SCORE.INTER.REPUL>  (50) 
0.139212

>  <SCORE.INTER.ROT>  (50) 
7

>  <SCORE.INTER.VDW>  (50) 
136.609

>  <SCORE.INTER.norm>  (50) 
6.80479

>  <SCORE.INTRA>  (50) 
7.27986

>  <SCORE.INTRA.DIHEDRAL>  (50) 
8.9999

>  <SCORE.INTRA.DIHEDRAL.0>  (50) 
3.78927

>  <SCORE.INTRA.POLAR>  (50) 
0

>  <SCORE.INTRA.POLAR.0>  (50) 
0

>  <SCORE.INTRA.REPUL>  (50) 
0

>  <SCORE.INTRA.REPUL.0>  (50) 
0

>  <SCORE.INTRA.VDW>  (50) 
2.77991

>  <SCORE.INTRA.VDW.0>  (50) 
1.02728

>  <SCORE.INTRA.norm>  (50) 
0.330903

>  <SCORE.RESTR>  (50) 
0

>  <SCORE.RESTR.CAVITY>  (50) 
0

>  <SCORE.RESTR.norm>  (50) 
0

>  <SCORE.SYSTEM>  (50) 
-4.20152

>  <SCORE.SYSTEM.CONST>  (50) 
0

>  <SCORE.SYSTEM.DIHEDRAL>  (50) 
8.88736

>  <SCORE.SYSTEM.POLAR>  (50) 
-1.9022

>  <SCORE.SYSTEM.REPUL>  (50) 
0.0174459

>  <SCORE.SYSTEM.VDW>  (50) 
-2.26494

>  <SCORE.SYSTEM.norm>  (50) 
-0.190978

>  <SCORE.heavy>  (50) 
22

>  <SCORE.norm>  (50) 
6.94472

$$$$
