denovo_401
     RDKit          3D

 22 23  0  0  0  0  0  0  0  0999 V2000
  -17.4819   17.0086  -14.0146 C   0  0  0  0  0  0  0  0  0  0  0  0
  -16.4459   17.0292  -14.9876 O   0  0  0  0  0  0  0  0  0  0  0  0
  -15.1517   17.0315  -14.3808 C   0  0  0  0  0  0  0  0  0  0  0  0
  -14.7455   15.5957  -13.9828 C   0  0  2  0  0  0  0  0  0  0  0  0
  -15.0223   15.3813  -12.4987 C   0  0  0  0  0  0  0  0  0  0  0  0
  -14.0131   15.6401  -11.5588 C   0  0  0  0  0  0  0  0  0  0  0  0
  -14.2441   15.4481  -10.1956 C   0  0  0  0  0  0  0  0  0  0  0  0
  -15.4849   14.9945   -9.7545 C   0  0  0  0  0  0  0  0  0  0  0  0
  -16.4960   14.7321  -10.6759 C   0  0  0  0  0  0  0  0  0  0  0  0
  -16.2673   14.9230  -12.0398 C   0  0  0  0  0  0  0  0  0  0  0  0
  -13.2752   15.2655  -14.3458 C   0  0  2  0  0  0  0  0  0  0  0  0
  -12.9064   15.5166  -15.8116 C   0  0  0  0  0  0  0  0  0  0  0  0
  -11.7486   14.5654  -16.1298 C   0  0  0  0  0  0  0  0  0  0  0  0
  -11.5669   13.6690  -14.9021 C   0  0  2  0  0  0  0  0  0  0  0  0
  -11.2083   12.1990  -15.1805 C   0  0  0  0  0  0  0  0  0  0  0  0
   -9.6971   11.7845  -15.1603 C   0  0  0  0  0  0  0  0  0  0  0  0
   -9.2049   11.6883  -13.7017 C   0  0  0  0  0  0  0  0  0  0  0  0
   -9.6297   10.3636  -15.7759 C   0  0  0  0  0  0  0  0  0  0  0  0
   -8.7946   12.7631  -15.9760 C   0  0  1  0  0  0  0  0  0  0  0  0
   -9.1691   12.9233  -17.4498 C   0  0  0  0  0  0  0  0  0  0  0  0
   -8.8239   14.0759  -15.4131 O   0  0  0  0  0  0  0  0  0  0  0  0
  -12.9146   13.7857  -14.1778 C   0  0  0  0  0  0  0  0  0  0  0  0
  1  2  1  0
  2  3  1  0
  4  3  1  1
  4  5  1  0
  5  6  2  0
  6  7  1  0
  7  8  2  0
  8  9  1  0
  9 10  2  0
  4 11  1  0
 11 12  1  6
 12 13  1  0
 13 14  1  0
 14 15  1  6
 15 16  1  0
 16 17  1  0
 16 18  1  0
 16 19  1  0
 19 20  1  6
 19 21  1  0
 14 22  1  0
 10  5  1  0
 22 11  1  0
M  END
>  <CHROM.0>  (1) 
-61.30145347,-63.70444529,-63.80477052,57.38196036,-174.01250138,-53.94061772
-73.28191684,176.81522926

>  <CHROM.1>  (1) 
81.68547248,-98.65136468,-91.74469430,-53.59659631,95.06208031,76.24024942
-58.09368473,59.73068398,-12.86248625,14.37538852,-14.08267049,2.92465853
-0.61290774,1.95202407

>  <Name>  (1) 
denovo_401

>  <RI>  (1) 
3.94589e+08

>  <Rbt.Current_Directory>  (1) 
/tmp/claude-0/-home-user-Rare-cancers/1af35c7f-7dc4-53ce-91d2-1631a2a10a85/scratchpad/smwork/cross/dock_8XTT-model6

>  <Rbt.Executable>  (1) 
rbdock - v25.07-alpha

>  <Rbt.Library>  (1) 
libRbt.so (25.07, Buildalpha)

>  <Rbt.Parameter_File>  (1) 
/tmp/claude-0/-home-user-Rare-cancers/1af35c7f-7dc4-53ce-91d2-1631a2a10a85/scratchpad/rdroot/share/rDock/data/scripts/dock.prm

>  <Rbt.Receptor>  (1) 
rec.prm

>  <SCORE>  (1) 
-22.4758

>  <SCORE.INTER>  (1) 
-17.1049

>  <SCORE.INTER.CONST>  (1) 
1

>  <SCORE.INTER.POLAR>  (1) 
-0.824621

>  <SCORE.INTER.REPUL>  (1) 
0

>  <SCORE.INTER.ROT>  (1) 
7

>  <SCORE.INTER.VDW>  (1) 
-26.7012

>  <SCORE.INTER.norm>  (1) 
-0.777495

>  <SCORE.INTRA>  (1) 
4.99808

>  <SCORE.INTRA.DIHEDRAL>  (1) 
8.05583

>  <SCORE.INTRA.DIHEDRAL.0>  (1) 
3.78927

>  <SCORE.INTRA.POLAR>  (1) 
0

>  <SCORE.INTRA.POLAR.0>  (1) 
0

>  <SCORE.INTRA.REPUL>  (1) 
0

>  <SCORE.INTRA.REPUL.0>  (1) 
0

>  <SCORE.INTRA.VDW>  (1) 
0.970163

>  <SCORE.INTRA.VDW.0>  (1) 
1.02728

>  <SCORE.INTRA.norm>  (1) 
0.227185

>  <SCORE.RESTR>  (1) 
0

>  <SCORE.RESTR.CAVITY>  (1) 
0

>  <SCORE.RESTR.norm>  (1) 
0

>  <SCORE.SYSTEM>  (1) 
-10.369

>  <SCORE.SYSTEM.CONST>  (1) 
0

>  <SCORE.SYSTEM.DIHEDRAL>  (1) 
1.41366

>  <SCORE.SYSTEM.POLAR>  (1) 
-2.62944

>  <SCORE.SYSTEM.VDW>  (1) 
-2.13573

>  <SCORE.SYSTEM.norm>  (1) 
-0.471319

>  <SCORE.heavy>  (1) 
22

>  <SCORE.norm>  (1) 
-1.02163

$$$$
denovo_401
     RDKit          3D

 22 23  0  0  0  0  0  0  0  0999 V2000
  -17.5985   16.9613  -13.9753 C   0  0  0  0  0  0  0  0  0  0  0  0
  -16.5350   17.0024  -14.9176 O   0  0  0  0  0  0  0  0  0  0  0  0
  -15.2594   17.0293  -14.2732 C   0  0  0  0  0  0  0  0  0  0  0  0
  -14.8255   15.5984  -13.8869 C   0  0  2  0  0  0  0  0  0  0  0  0
  -15.0612   15.3800  -12.3963 C   0  0  0  0  0  0  0  0  0  0  0  0
  -14.0300   15.6470  -11.4829 C   0  0  0  0  0  0  0  0  0  0  0  0
  -14.2233   15.4516  -10.1143 C   0  0  0  0  0  0  0  0  0  0  0  0
  -15.4479   14.9862   -9.6413 C   0  0  0  0  0  0  0  0  0  0  0  0
  -16.4805   14.7156  -10.5361 C   0  0  0  0  0  0  0  0  0  0  0  0
  -16.2895   14.9100  -11.9053 C   0  0  0  0  0  0  0  0  0  0  0  0
  -13.3611   15.2865  -14.2880 C   0  0  2  0  0  0  0  0  0  0  0  0
  -13.0351   15.5368  -15.7640 C   0  0  0  0  0  0  0  0  0  0  0  0
  -11.8736   14.5999  -16.1099 C   0  0  0  0  0  0  0  0  0  0  0  0
  -11.6472   13.7107  -14.8843 C   0  0  2  0  0  0  0  0  0  0  0  0
  -11.2764   12.2446  -15.1672 C   0  0  0  0  0  0  0  0  0  0  0  0
   -9.7856   11.9067  -15.5126 C   0  0  0  0  0  0  0  0  0  0  0  0
   -9.6612   10.4107  -15.8666 C   0  0  0  0  0  0  0  0  0  0  0  0
   -9.4402   12.7230  -16.7841 C   0  0  0  0  0  0  0  0  0  0  0  0
   -8.8025   12.2764  -14.3573 C   0  0  1  0  0  0  0  0  0  0  0  0
   -9.0321   11.5338  -13.0406 C   0  0  0  0  0  0  0  0  0  0  0  0
   -7.4496   12.0124  -14.7325 O   0  0  0  0  0  0  0  0  0  0  0  0
  -12.9764   13.8123  -14.1246 C   0  0  0  0  0  0  0  0  0  0  0  0
  1  2  1  0
  2  3  1  0
  4  3  1  1
  4  5  1  0
  5  6  2  0
  6  7  1  0
  7  8  2  0
  8  9  1  0
  9 10  2  0
  4 11  1  0
 11 12  1  6
 12 13  1  0
 13 14  1  0
 14 15  1  6
 15 16  1  0
 16 17  1  0
 16 18  1  0
 16 19  1  0
 19 20  1  1
 19 21  1  0
 14 22  1  0
 10  5  1  0
 22 11  1  0
M  END
>  <CHROM.0>  (2) 
-60.75974576,-62.00751774,64.07148249,-63.41120900,-178.46638451,-59.92448294
-76.97835310,-173.22750631

>  <CHROM.1>  (2) 
82.73345676,-102.04259785,-91.93171882,-53.85285332,81.21471489,-175.55223069
61.93926592,64.14306051,-12.83993669,14.23463222,-13.88237160,2.93972530
-0.59144978,1.81286864

>  <Name>  (2) 
denovo_401

>  <RI>  (2) 
3.94589e+08

>  <Rbt.Current_Directory>  (2) 
/tmp/claude-0/-home-user-Rare-cancers/1af35c7f-7dc4-53ce-91d2-1631a2a10a85/scratchpad/smwork/cross/dock_8XTT-model6

>  <Rbt.Executable>  (2) 
rbdock - v25.07-alpha

>  <Rbt.Library>  (2) 
libRbt.so (25.07, Buildalpha)

>  <Rbt.Parameter_File>  (2) 
/tmp/claude-0/-home-user-Rare-cancers/1af35c7f-7dc4-53ce-91d2-1631a2a10a85/scratchpad/rdroot/share/rDock/data/scripts/dock.prm

>  <Rbt.Receptor>  (2) 
rec.prm

>  <SCORE>  (2) 
-22.1457

>  <SCORE.INTER>  (2) 
-15.3674

>  <SCORE.INTER.CONST>  (2) 
1

>  <SCORE.INTER.POLAR>  (2) 
-0.824621

>  <SCORE.INTER.REPUL>  (2) 
0

>  <SCORE.INTER.ROT>  (2) 
7

>  <SCORE.INTER.VDW>  (2) 
-24.9637

>  <SCORE.INTER.norm>  (2) 
-0.698517

>  <SCORE.INTRA>  (2) 
4.51511

>  <SCORE.INTRA.DIHEDRAL>  (2) 
5.58801

>  <SCORE.INTRA.DIHEDRAL.0>  (2) 
3.78927

>  <SCORE.INTRA.POLAR>  (2) 
0

>  <SCORE.INTRA.POLAR.0>  (2) 
0

>  <SCORE.INTRA.REPUL>  (2) 
0

>  <SCORE.INTRA.REPUL.0>  (2) 
0

>  <SCORE.INTRA.VDW>  (2) 
1.7211

>  <SCORE.INTRA.VDW.0>  (2) 
1.02728

>  <SCORE.INTRA.norm>  (2) 
0.205232

>  <SCORE.RESTR>  (2) 
0

>  <SCORE.RESTR.CAVITY>  (2) 
0

>  <SCORE.RESTR.norm>  (2) 
0

>  <SCORE.SYSTEM>  (2) 
-11.2934

>  <SCORE.SYSTEM.CONST>  (2) 
0

>  <SCORE.SYSTEM.DIHEDRAL>  (2) 
1.70886

>  <SCORE.SYSTEM.POLAR>  (2) 
-2.62502

>  <SCORE.SYSTEM.VDW>  (2) 
-3.22279

>  <SCORE.SYSTEM.norm>  (2) 
-0.513338

>  <SCORE.heavy>  (2) 
22

>  <SCORE.norm>  (2) 
-1.00662

$$$$
denovo_401
     RDKit          3D

 22 23  0  0  0  0  0  0  0  0999 V2000
  -18.3490   17.3187  -14.2465 C   0  0  0  0  0  0  0  0  0  0  0  0
  -17.2574   16.4415  -14.4899 O   0  0  0  0  0  0  0  0  0  0  0  0
  -16.1170   16.7859  -13.6999 C   0  0  0  0  0  0  0  0  0  0  0  0
  -15.3345   15.5136  -13.3077 C   0  0  2  0  0  0  0  0  0  0  0  0
  -15.2830   15.3958  -11.7883 C   0  0  0  0  0  0  0  0  0  0  0  0
  -16.4710   15.2127  -11.0645 C   0  0  0  0  0  0  0  0  0  0  0  0
  -16.4471   15.1050   -9.6729 C   0  0  0  0  0  0  0  0  0  0  0  0
  -15.2371   15.1800   -8.9873 C   0  0  0  0  0  0  0  0  0  0  0  0
  -14.0497   15.3629   -9.6922 C   0  0  0  0  0  0  0  0  0  0  0  0
  -14.0711   15.4712  -11.0839 C   0  0  0  0  0  0  0  0  0  0  0  0
  -13.9182   15.4627  -13.9356 C   0  0  2  0  0  0  0  0  0  0  0  0
  -13.8679   15.8025  -15.4288 C   0  0  0  0  0  0  0  0  0  0  0  0
  -12.6370   15.0834  -15.9894 C   0  0  0  0  0  0  0  0  0  0  0  0
  -12.0837   14.2133  -14.8575 C   0  0  2  0  0  0  0  0  0  0  0  0
  -11.5280   12.8382  -15.2665 C   0  0  0  0  0  0  0  0  0  0  0  0
  -10.0577   12.7587  -15.8030 C   0  0  0  0  0  0  0  0  0  0  0  0
   -9.8817   13.7378  -16.9816 C   0  0  0  0  0  0  0  0  0  0  0  0
   -9.1479   13.2445  -14.6459 C   0  0  0  0  0  0  0  0  0  0  0  0
   -9.6515   11.3131  -16.2306 C   0  0  1  0  0  0  0  0  0  0  0  0
   -8.2036   11.1508  -16.6944 C   0  0  0  0  0  0  0  0  0  0  0  0
   -9.8300   10.3916  -15.1536 O   0  0  0  0  0  0  0  0  0  0  0  0
  -13.2790   14.0704  -13.9062 C   0  0  0  0  0  0  0  0  0  0  0  0
  1  2  1  0
  2  3  1  0
  4  3  1  1
  4  5  1  0
  5  6  2  0
  6  7  1  0
  7  8  2  0
  8  9  1  0
  9 10  2  0
  4 11  1  0
 11 12  1  6
 12 13  1  0
 13 14  1  0
 14 15  1  6
 15 16  1  0
 16 17  1  0
 16 18  1  0
 16 19  1  0
 19 20  1  1
 19 21  1  0
 14 22  1  0
 10  5  1  0
 22 11  1  0
M  END
>  <CHROM.0>  (3) 
-58.93360182,-65.37867957,-56.51373340,-65.19042407,-173.94062777,-177.95327626
-71.89476549,-172.70574526

>  <CHROM.1>  (3) 
146.40968727,-120.10015715,64.23914803,-46.64806266,83.07511096,-54.35214484
-176.88547982,171.59880108,-13.25405146,14.40603889,-13.86315491,2.75025384
-0.59822893,1.74467759

>  <Name>  (3) 
denovo_401

>  <RI>  (3) 
3.94589e+08

>  <Rbt.Current_Directory>  (3) 
/tmp/claude-0/-home-user-Rare-cancers/1af35c7f-7dc4-53ce-91d2-1631a2a10a85/scratchpad/smwork/cross/dock_8XTT-model6

>  <Rbt.Executable>  (3) 
rbdock - v25.07-alpha

>  <Rbt.Library>  (3) 
libRbt.so (25.07, Buildalpha)

>  <Rbt.Parameter_File>  (3) 
/tmp/claude-0/-home-user-Rare-cancers/1af35c7f-7dc4-53ce-91d2-1631a2a10a85/scratchpad/rdroot/share/rDock/data/scripts/dock.prm

>  <Rbt.Receptor>  (3) 
rec.prm

>  <SCORE>  (3) 
-20.2992

>  <SCORE.INTER>  (3) 
-20.5037

>  <SCORE.INTER.CONST>  (3) 
1

>  <SCORE.INTER.POLAR>  (3) 
-1.82462

>  <SCORE.INTER.REPUL>  (3) 
0

>  <SCORE.INTER.ROT>  (3) 
7

>  <SCORE.INTER.VDW>  (3) 
-26.7

>  <SCORE.INTER.norm>  (3) 
-0.931988

>  <SCORE.INTRA>  (3) 
7.91447

>  <SCORE.INTRA.DIHEDRAL>  (3) 
9.8185

>  <SCORE.INTRA.DIHEDRAL.0>  (3) 
3.78927

>  <SCORE.INTRA.POLAR>  (3) 
0

>  <SCORE.INTRA.POLAR.0>  (3) 
0

>  <SCORE.INTRA.REPUL>  (3) 
0

>  <SCORE.INTRA.REPUL.0>  (3) 
0

>  <SCORE.INTRA.VDW>  (3) 
3.00522

>  <SCORE.INTRA.VDW.0>  (3) 
1.02728

>  <SCORE.INTRA.norm>  (3) 
0.359749

>  <SCORE.RESTR>  (3) 
0

>  <SCORE.RESTR.CAVITY>  (3) 
0

>  <SCORE.RESTR.norm>  (3) 
0

>  <SCORE.SYSTEM>  (3) 
-7.70996

>  <SCORE.SYSTEM.CONST>  (3) 
0

>  <SCORE.SYSTEM.DIHEDRAL>  (3) 
1.41908

>  <SCORE.SYSTEM.POLAR>  (3) 
-2.23645

>  <SCORE.SYSTEM.REPUL>  (3) 
0.306779

>  <SCORE.SYSTEM.VDW>  (3) 
-2.34945

>  <SCORE.SYSTEM.norm>  (3) 
-0.350453

>  <SCORE.heavy>  (3) 
22

>  <SCORE.norm>  (3) 
-0.922692

$$$$
denovo_401
     RDKit          3D

 22 23  0  0  0  0  0  0  0  0999 V2000
  -18.3538   17.4499  -14.1240 C   0  0  0  0  0  0  0  0  0  0  0  0
  -17.5595   16.4383  -13.5189 O   0  0  0  0  0  0  0  0  0  0  0  0
  -16.1649   16.6569  -13.7440 C   0  0  0  0  0  0  0  0  0  0  0  0
  -15.3540   15.4120  -13.3226 C   0  0  2  0  0  0  0  0  0  0  0  0
  -15.3160   15.3203  -11.8010 C   0  0  0  0  0  0  0  0  0  0  0  0
  -14.0916   15.4465  -11.1273 C   0  0  0  0  0  0  0  0  0  0  0  0
  -14.0335   15.3632   -9.7351 C   0  0  0  0  0  0  0  0  0  0  0  0
  -15.1968   15.1518   -8.9989 C   0  0  0  0  0  0  0  0  0  0  0  0
  -16.4194   15.0233   -9.6539 C   0  0  0  0  0  0  0  0  0  0  0  0
  -16.4800   15.1060  -11.0462 C   0  0  0  0  0  0  0  0  0  0  0  0
  -13.9301   15.3879  -13.9346 C   0  0  2  0  0  0  0  0  0  0  0  0
  -13.8674   15.7472  -15.4228 C   0  0  0  0  0  0  0  0  0  0  0  0
  -12.6206   15.0517  -15.9781 C   0  0  0  0  0  0  0  0  0  0  0  0
  -12.0686   14.1748  -14.8510 C   0  0  2  0  0  0  0  0  0  0  0  0
  -11.4899   12.8125  -15.2707 C   0  0  0  0  0  0  0  0  0  0  0  0
  -10.0165   12.7612  -15.8022 C   0  0  0  0  0  0  0  0  0  0  0  0
   -9.8307   13.8090  -16.9186 C   0  0  0  0  0  0  0  0  0  0  0  0
   -9.1126   13.1735  -14.6125 C   0  0  0  0  0  0  0  0  0  0  0  0
   -9.6114   11.3427  -16.3139 C   0  0  1  0  0  0  0  0  0  0  0  0
   -8.1294   11.1659  -16.6460 C   0  0  0  0  0  0  0  0  0  0  0  0
   -9.9245   10.3405  -15.3451 O   0  0  0  0  0  0  0  0  0  0  0  0
  -13.2726   14.0039  -13.9154 C   0  0  0  0  0  0  0  0  0  0  0  0
  1  2  1  0
  2  3  1  0
  4  3  1  1
  4  5  1  0
  5  6  2  0
  6  7  1  0
  7  8  2  0
  8  9  1  0
  9 10  2  0
  4 11  1  0
 11 12  1  6
 12 13  1  0
 13 14  1  0
 14 15  1  6
 15 16  1  0
 16 17  1  0
 16 18  1  0
 16 19  1  0
 19 20  1  1
 19 21  1  0
 14 22  1  0
 10  5  1  0
 22 11  1  0
M  END
>  <CHROM.0>  (4) 
-59.56182056,-62.45374632,62.92074096,56.70025803,-21.16874313,-55.29005551
-73.47337764,-35.80648050

>  <CHROM.1>  (4) 
-168.86617486,-73.07022528,-115.40792172,-44.83146044,82.58277310,-51.24544647
-171.03545575,78.95175540,-13.26680477,14.37729510,-13.81745368,2.75123388
-0.59711756,1.76284085

>  <Name>  (4) 
denovo_401

>  <RI>  (4) 
3.94589e+08

>  <Rbt.Current_Directory>  (4) 
/tmp/claude-0/-home-user-Rare-cancers/1af35c7f-7dc4-53ce-91d2-1631a2a10a85/scratchpad/smwork/cross/dock_8XTT-model6

>  <Rbt.Executable>  (4) 
rbdock - v25.07-alpha

>  <Rbt.Library>  (4) 
libRbt.so (25.07, Buildalpha)

>  <Rbt.Parameter_File>  (4) 
/tmp/claude-0/-home-user-Rare-cancers/1af35c7f-7dc4-53ce-91d2-1631a2a10a85/scratchpad/rdroot/share/rDock/data/scripts/dock.prm

>  <Rbt.Receptor>  (4) 
rec.prm

>  <SCORE>  (4) 
-19.3703

>  <SCORE.INTER>  (4) 
-16.5761

>  <SCORE.INTER.CONST>  (4) 
1

>  <SCORE.INTER.POLAR>  (4) 
-0.922256

>  <SCORE.INTER.REPUL>  (4) 
0

>  <SCORE.INTER.ROT>  (4) 
7

>  <SCORE.INTER.VDW>  (4) 
-25.8404

>  <SCORE.INTER.norm>  (4) 
-0.753457

>  <SCORE.INTRA>  (4) 
4.52253

>  <SCORE.INTRA.DIHEDRAL>  (4) 
3.2568

>  <SCORE.INTRA.DIHEDRAL.0>  (4) 
3.78927

>  <SCORE.INTRA.POLAR>  (4) 
0

>  <SCORE.INTRA.POLAR.0>  (4) 
0

>  <SCORE.INTRA.REPUL>  (4) 
0

>  <SCORE.INTRA.REPUL.0>  (4) 
0

>  <SCORE.INTRA.VDW>  (4) 
2.89414

>  <SCORE.INTRA.VDW.0>  (4) 
1.02728

>  <SCORE.INTRA.norm>  (4) 
0.20557

>  <SCORE.RESTR>  (4) 
0

>  <SCORE.RESTR.CAVITY>  (4) 
0

>  <SCORE.RESTR.norm>  (4) 
0

>  <SCORE.SYSTEM>  (4) 
-7.31681

>  <SCORE.SYSTEM.CONST>  (4) 
0

>  <SCORE.SYSTEM.DIHEDRAL>  (4) 
8.80494

>  <SCORE.SYSTEM.POLAR>  (4) 
-3.76342

>  <SCORE.SYSTEM.VDW>  (4) 
1.07634

>  <SCORE.SYSTEM.norm>  (4) 
-0.332582

>  <SCORE.heavy>  (4) 
22

>  <SCORE.norm>  (4) 
-0.88047

$$$$
denovo_401
     RDKit          3D

 22 23  0  0  0  0  0  0  0  0999 V2000
  -17.7685   16.8664  -13.9434 C   0  0  0  0  0  0  0  0  0  0  0  0
  -16.7322   17.0558  -14.8976 O   0  0  0  0  0  0  0  0  0  0  0  0
  -15.4423   17.0636  -14.2817 C   0  0  0  0  0  0  0  0  0  0  0  0
  -15.0121   15.6240  -13.9244 C   0  0  2  0  0  0  0  0  0  0  0  0
  -15.3084   15.3546  -12.4531 C   0  0  0  0  0  0  0  0  0  0  0  0
  -15.9966   14.1887  -12.0847 C   0  0  0  0  0  0  0  0  0  0  0  0
  -16.2807   13.9235  -10.7439 C   0  0  0  0  0  0  0  0  0  0  0  0
  -15.8820   14.8197   -9.7551 C   0  0  0  0  0  0  0  0  0  0  0  0
  -15.1992   15.9821  -10.1057 C   0  0  0  0  0  0  0  0  0  0  0  0
  -14.9142   16.2496  -11.4459 C   0  0  0  0  0  0  0  0  0  0  0  0
  -13.5293   15.3368  -14.2730 C   0  0  2  0  0  0  0  0  0  0  0  0
  -13.1503   15.6124  -15.7318 C   0  0  0  0  0  0  0  0  0  0  0  0
  -11.9638   14.6957  -16.0455 C   0  0  0  0  0  0  0  0  0  0  0  0
  -11.7726   13.7920  -14.8245 C   0  0  2  0  0  0  0  0  0  0  0  0
  -11.3716   12.3350  -15.1130 C   0  0  0  0  0  0  0  0  0  0  0  0
   -9.8572   12.0138  -15.3567 C   0  0  0  0  0  0  0  0  0  0  0  0
   -9.4113   12.6094  -16.7077 C   0  0  0  0  0  0  0  0  0  0  0  0
   -9.0739   12.7451  -14.2368 C   0  0  0  0  0  0  0  0  0  0  0  0
   -9.5525   10.4832  -15.3093 C   0  0  1  0  0  0  0  0  0  0  0  0
  -10.1184    9.7410  -14.0982 C   0  0  0  0  0  0  0  0  0  0  0  0
  -10.0760    9.8213  -16.4620 O   0  0  0  0  0  0  0  0  0  0  0  0
  -13.1313   13.8655  -14.1152 C   0  0  0  0  0  0  0  0  0  0  0  0
  1  2  1  0
  2  3  1  0
  4  3  1  1
  4  5  1  0
  5  6  2  0
  6  7  1  0
  7  8  2  0
  8  9  1  0
  9 10  2  0
  4 11  1  0
 11 12  1  6
 12 13  1  0
 13 14  1  0
 14 15  1  6
 15 16  1  0
 16 17  1  0
 16 18  1  0
 16 19  1  0
 19 20  1  1
 19 21  1  0
 14 22  1  0
 10  5  1  0
 22 11  1  0
M  END
>  <CHROM.0>  (5) 
-59.33190062,-63.14055677,-61.24116529,175.76900812,-177.89118913,-56.72534170
60.78385275,-37.09040261

>  <CHROM.1>  (5) 
76.44802801,-98.05597627,130.63890841,-54.99202332,83.28141729,-69.81470928
-49.13028983,-60.30714017,-13.20419134,14.05597291,-13.98959034,3.10724245
-0.72869870,2.10140662

>  <Name>  (5) 
denovo_401

>  <RI>  (5) 
3.94589e+08

>  <Rbt.Current_Directory>  (5) 
/tmp/claude-0/-home-user-Rare-cancers/1af35c7f-7dc4-53ce-91d2-1631a2a10a85/scratchpad/smwork/cross/dock_8XTT-model6

>  <Rbt.Executable>  (5) 
rbdock - v25.07-alpha

>  <Rbt.Library>  (5) 
libRbt.so (25.07, Buildalpha)

>  <Rbt.Parameter_File>  (5) 
/tmp/claude-0/-home-user-Rare-cancers/1af35c7f-7dc4-53ce-91d2-1631a2a10a85/scratchpad/rdroot/share/rDock/data/scripts/dock.prm

>  <Rbt.Receptor>  (5) 
rec.prm

>  <SCORE>  (5) 
-17.6315

>  <SCORE.INTER>  (5) 
-15.6563

>  <SCORE.INTER.CONST>  (5) 
1

>  <SCORE.INTER.POLAR>  (5) 
-1.55408

>  <SCORE.INTER.REPUL>  (5) 
0

>  <SCORE.INTER.ROT>  (5) 
7

>  <SCORE.INTER.VDW>  (5) 
-22.7724

>  <SCORE.INTER.norm>  (5) 
-0.711651

>  <SCORE.INTRA>  (5) 
4.62027

>  <SCORE.INTRA.DIHEDRAL>  (5) 
5.30229

>  <SCORE.INTRA.DIHEDRAL.0>  (5) 
3.78927

>  <SCORE.INTRA.POLAR>  (5) 
0

>  <SCORE.INTRA.POLAR.0>  (5) 
0

>  <SCORE.INTRA.REPUL>  (5) 
0

>  <SCORE.INTRA.REPUL.0>  (5) 
0

>  <SCORE.INTRA.VDW>  (5) 
1.96912

>  <SCORE.INTRA.VDW.0>  (5) 
1.02728

>  <SCORE.INTRA.norm>  (5) 
0.210012

>  <SCORE.RESTR>  (5) 
0

>  <SCORE.RESTR.CAVITY>  (5) 
0

>  <SCORE.RESTR.norm>  (5) 
0

>  <SCORE.SYSTEM>  (5) 
-6.59547

>  <SCORE.SYSTEM.CONST>  (5) 
0

>  <SCORE.SYSTEM.DIHEDRAL>  (5) 
2.48369

>  <SCORE.SYSTEM.POLAR>  (5) 
-2.50156

>  <SCORE.SYSTEM.REPUL>  (5) 
0.00393631

>  <SCORE.SYSTEM.VDW>  (5) 
0.648315

>  <SCORE.SYSTEM.norm>  (5) 
-0.299794

>  <SCORE.heavy>  (5) 
22

>  <SCORE.norm>  (5) 
-0.801433

$$$$
denovo_401
     RDKit          3D

 22 23  0  0  0  0  0  0  0  0999 V2000
  -18.2335   17.3542  -14.1900 C   0  0  0  0  0  0  0  0  0  0  0  0
  -17.2826   16.3235  -14.4223 O   0  0  0  0  0  0  0  0  0  0  0  0
  -15.9735   16.7070  -13.9952 C   0  0  0  0  0  0  0  0  0  0  0  0
  -15.1560   15.4600  -13.5929 C   0  0  2  0  0  0  0  0  0  0  0  0
  -15.1610   15.3160  -12.0750 C   0  0  0  0  0  0  0  0  0  0  0  0
  -16.3504   14.9761  -11.4128 C   0  0  0  0  0  0  0  0  0  0  0  0
  -16.3782   14.8417  -10.0236 C   0  0  0  0  0  0  0  0  0  0  0  0
  -15.2191   15.0461   -9.2788 C   0  0  0  0  0  0  0  0  0  0  0  0
  -14.0311   15.3854   -9.9222 C   0  0  0  0  0  0  0  0  0  0  0  0
  -14.0010   15.5206  -11.3113 C   0  0  0  0  0  0  0  0  0  0  0  0
  -13.7147   15.4779  -14.1629 C   0  0  2  0  0  0  0  0  0  0  0  0
  -13.6138   15.8931  -15.6343 C   0  0  0  0  0  0  0  0  0  0  0  0
  -12.3413   15.2356  -16.1775 C   0  0  0  0  0  0  0  0  0  0  0  0
  -11.8097   14.3249  -15.0675 C   0  0  2  0  0  0  0  0  0  0  0  0
  -11.1993   12.9870  -15.5197 C   0  0  0  0  0  0  0  0  0  0  0  0
   -9.6720   12.9454  -15.8686 C   0  0  0  0  0  0  0  0  0  0  0  0
   -9.3477   14.0363  -16.9096 C   0  0  0  0  0  0  0  0  0  0  0  0
   -8.9195   13.3018  -14.5613 C   0  0  0  0  0  0  0  0  0  0  0  0
   -9.2116   11.5458  -16.3852 C   0  0  1  0  0  0  0  0  0  0  0  0
   -9.7860   10.3480  -15.6281 C   0  0  0  0  0  0  0  0  0  0  0  0
   -9.5734   11.3614  -17.7549 O   0  0  0  0  0  0  0  0  0  0  0  0
  -13.0379   14.1031  -14.1750 C   0  0  0  0  0  0  0  0  0  0  0  0
  1  2  1  0
  2  3  1  0
  4  3  1  1
  4  5  1  0
  5  6  2  0
  6  7  1  0
  7  8  2  0
  8  9  1  0
  9 10  2  0
  4 11  1  0
 11 12  1  6
 12 13  1  0
 13 14  1  0
 14 15  1  6
 15 16  1  0
 16 17  1  0
 16 18  1  0
 16 19  1  0
 19 20  1  1
 19 21  1  0
 14 22  1  0
 10  5  1  0
 22 11  1  0
M  END
>  <CHROM.0>  (6) 
-174.62721949,-59.85391753,-60.38217866,175.97754756,-173.57694575,-57.41845951
-72.08418013,63.66225300

>  <CHROM.1>  (6) 
151.91057179,-100.00171759,68.83885170,-44.68108410,88.74547581,-53.47958832
-41.98907041,69.50757713,-13.13672302,14.44781287,-14.11147992,2.71699518
-0.57932402,1.75538730

>  <Name>  (6) 
denovo_401

>  <RI>  (6) 
3.94589e+08

>  <Rbt.Current_Directory>  (6) 
/tmp/claude-0/-home-user-Rare-cancers/1af35c7f-7dc4-53ce-91d2-1631a2a10a85/scratchpad/smwork/cross/dock_8XTT-model6

>  <Rbt.Executable>  (6) 
rbdock - v25.07-alpha

>  <Rbt.Library>  (6) 
libRbt.so (25.07, Buildalpha)

>  <Rbt.Parameter_File>  (6) 
/tmp/claude-0/-home-user-Rare-cancers/1af35c7f-7dc4-53ce-91d2-1631a2a10a85/scratchpad/rdroot/share/rDock/data/scripts/dock.prm

>  <Rbt.Receptor>  (6) 
rec.prm

>  <SCORE>  (6) 
-17.0347

>  <SCORE.INTER>  (6) 
-14.9673

>  <SCORE.INTER.CONST>  (6) 
1

>  <SCORE.INTER.POLAR>  (6) 
-1.13661

>  <SCORE.INTER.REPUL>  (6) 
0.101041

>  <SCORE.INTER.ROT>  (6) 
7

>  <SCORE.INTER.VDW>  (6) 
-24.008

>  <SCORE.INTER.norm>  (6) 
-0.680332

>  <SCORE.INTRA>  (6) 
7.08145

>  <SCORE.INTRA.DIHEDRAL>  (6) 
9.77827

>  <SCORE.INTRA.DIHEDRAL.0>  (6) 
3.78927

>  <SCORE.INTRA.POLAR>  (6) 
0

>  <SCORE.INTRA.POLAR.0>  (6) 
0

>  <SCORE.INTRA.REPUL>  (6) 
0

>  <SCORE.INTRA.REPUL.0>  (6) 
0

>  <SCORE.INTRA.VDW>  (6) 
2.19232

>  <SCORE.INTRA.VDW.0>  (6) 
1.02728

>  <SCORE.INTRA.norm>  (6) 
0.321884

>  <SCORE.RESTR>  (6) 
0

>  <SCORE.RESTR.CAVITY>  (6) 
0

>  <SCORE.RESTR.norm>  (6) 
0

>  <SCORE.SYSTEM>  (6) 
-9.14885

>  <SCORE.SYSTEM.CONST>  (6) 
0

>  <SCORE.SYSTEM.DIHEDRAL>  (6) 
1.18881

>  <SCORE.SYSTEM.POLAR>  (6) 
-2.48459

>  <SCORE.SYSTEM.VDW>  (6) 
-1.29565

>  <SCORE.SYSTEM.norm>  (6) 
-0.415857

>  <SCORE.heavy>  (6) 
22

>  <SCORE.norm>  (6) 
-0.774305

$$$$
denovo_401
     RDKit          3D

 22 23  0  0  0  0  0  0  0  0999 V2000
  -17.4266   17.0143  -14.0079 C   0  0  0  0  0  0  0  0  0  0  0  0
  -16.3707   17.0845  -14.9569 O   0  0  0  0  0  0  0  0  0  0  0  0
  -15.0893   17.0502  -14.3244 C   0  0  0  0  0  0  0  0  0  0  0  0
  -14.7256   15.6015  -13.9319 C   0  0  2  0  0  0  0  0  0  0  0  0
  -14.9952   15.3939  -12.4455 C   0  0  0  0  0  0  0  0  0  0  0  0
  -16.2455   14.9148  -12.0260 C   0  0  0  0  0  0  0  0  0  0  0  0
  -16.5147   14.7200  -10.6702 C   0  0  0  0  0  0  0  0  0  0  0  0
  -15.5391   15.0021   -9.7169 C   0  0  0  0  0  0  0  0  0  0  0  0
  -14.2936   15.4796  -10.1182 C   0  0  0  0  0  0  0  0  0  0  0  0
  -14.0223   15.6755  -11.4735 C   0  0  0  0  0  0  0  0  0  0  0  0
  -13.2701   15.2250  -14.3091 C   0  0  2  0  0  0  0  0  0  0  0  0
  -12.9084   15.4625  -15.7789 C   0  0  0  0  0  0  0  0  0  0  0  0
  -11.7842   14.4751  -16.1073 C   0  0  0  0  0  0  0  0  0  0  0  0
  -11.6184   13.5750  -14.8799 C   0  0  2  0  0  0  0  0  0  0  0  0
  -11.3088   12.0942  -15.1596 C   0  0  0  0  0  0  0  0  0  0  0  0
   -9.8082   11.6513  -15.2500 C   0  0  0  0  0  0  0  0  0  0  0  0
   -9.1593   11.7285  -13.8529 C   0  0  0  0  0  0  0  0  0  0  0  0
   -9.8215   10.1630  -15.6828 C   0  0  0  0  0  0  0  0  0  0  0  0
   -8.9924   12.4986  -16.2768 C   0  0  1  0  0  0  0  0  0  0  0  0
   -7.6113   11.9459  -16.6300 C   0  0  0  0  0  0  0  0  0  0  0  0
   -9.6986   12.6243  -17.5123 O   0  0  0  0  0  0  0  0  0  0  0  0
  -12.9543   13.7348  -14.1424 C   0  0  0  0  0  0  0  0  0  0  0  0
  1  2  1  0
  2  3  1  0
  4  3  1  1
  4  5  1  0
  5  6  2  0
  6  7  1  0
  7  8  2  0
  8  9  1  0
  9 10  2  0
  4 11  1  0
 11 12  1  6
 12 13  1  0
 13 14  1  0
 14 15  1  6
 15 16  1  0
 16 17  1  0
 16 18  1  0
 16 19  1  0
 19 20  1  6
 19 21  1  0
 14 22  1  0
 10  5  1  0
 22 11  1  0
M  END
>  <CHROM.0>  (7) 
-177.96320140,62.89273415,65.38652114,52.97661444,-176.83919346,-59.94605784
-70.57989630,-34.68925259

>  <CHROM.1>  (7) 
78.83094454,-100.46025991,91.47169331,-53.76664635,90.98999442,69.65706373
-167.90759027,169.95869220,-12.85742364,14.21143895,-14.15767968,2.89906417
-0.65765656,1.92723468

>  <Name>  (7) 
denovo_401

>  <RI>  (7) 
3.94589e+08

>  <Rbt.Current_Directory>  (7) 
/tmp/claude-0/-home-user-Rare-cancers/1af35c7f-7dc4-53ce-91d2-1631a2a10a85/scratchpad/smwork/cross/dock_8XTT-model6

>  <Rbt.Executable>  (7) 
rbdock - v25.07-alpha

>  <Rbt.Library>  (7) 
libRbt.so (25.07, Buildalpha)

>  <Rbt.Parameter_File>  (7) 
/tmp/claude-0/-home-user-Rare-cancers/1af35c7f-7dc4-53ce-91d2-1631a2a10a85/scratchpad/rdroot/share/rDock/data/scripts/dock.prm

>  <Rbt.Receptor>  (7) 
rec.prm

>  <SCORE>  (7) 
-16.2027

>  <SCORE.INTER>  (7) 
-15.0113

>  <SCORE.INTER.CONST>  (7) 
1

>  <SCORE.INTER.POLAR>  (7) 
-1.28431

>  <SCORE.INTER.REPUL>  (7) 
0

>  <SCORE.INTER.ROT>  (7) 
7

>  <SCORE.INTER.VDW>  (7) 
-23.0447

>  <SCORE.INTER.norm>  (7) 
-0.682332

>  <SCORE.INTRA>  (7) 
5.46014

>  <SCORE.INTRA.DIHEDRAL>  (7) 
7.42615

>  <SCORE.INTRA.DIHEDRAL.0>  (7) 
3.78927

>  <SCORE.INTRA.POLAR>  (7) 
0

>  <SCORE.INTRA.POLAR.0>  (7) 
0

>  <SCORE.INTRA.REPUL>  (7) 
0

>  <SCORE.INTRA.REPUL.0>  (7) 
0

>  <SCORE.INTRA.VDW>  (7) 
1.74706

>  <SCORE.INTRA.VDW.0>  (7) 
1.02728

>  <SCORE.INTRA.norm>  (7) 
0.248188

>  <SCORE.RESTR>  (7) 
0

>  <SCORE.RESTR.CAVITY>  (7) 
0

>  <SCORE.RESTR.norm>  (7) 
0

>  <SCORE.SYSTEM>  (7) 
-6.65149

>  <SCORE.SYSTEM.CONST>  (7) 
0

>  <SCORE.SYSTEM.DIHEDRAL>  (7) 
3.64803

>  <SCORE.SYSTEM.POLAR>  (7) 
-1.8725

>  <SCORE.SYSTEM.REPUL>  (7) 
0.0825397

>  <SCORE.SYSTEM.VDW>  (7) 
-2.52171

>  <SCORE.SYSTEM.norm>  (7) 
-0.30234

>  <SCORE.heavy>  (7) 
22

>  <SCORE.norm>  (7) 
-0.736485

$$$$
denovo_401
     RDKit          3D

 22 23  0  0  0  0  0  0  0  0999 V2000
  -18.3391   17.4741  -14.1295 C   0  0  0  0  0  0  0  0  0  0  0  0
  -17.5549   16.4284  -13.5709 O   0  0  0  0  0  0  0  0  0  0  0  0
  -16.1564   16.6637  -13.7505 C   0  0  0  0  0  0  0  0  0  0  0  0
  -15.3461   15.4207  -13.3223 C   0  0  2  0  0  0  0  0  0  0  0  0
  -15.3122   15.3348  -11.8003 C   0  0  0  0  0  0  0  0  0  0  0  0
  -14.0919   15.4790  -11.1228 C   0  0  0  0  0  0  0  0  0  0  0  0
  -14.0376   15.4012   -9.7301 C   0  0  0  0  0  0  0  0  0  0  0  0
  -15.2007   15.1774   -8.9972 C   0  0  0  0  0  0  0  0  0  0  0  0
  -16.4192   15.0309   -9.6559 C   0  0  0  0  0  0  0  0  0  0  0  0
  -16.4760   15.1081  -11.0487 C   0  0  0  0  0  0  0  0  0  0  0  0
  -13.9205   15.3950  -13.9303 C   0  0  2  0  0  0  0  0  0  0  0  0
  -13.8518   15.7655  -15.4155 C   0  0  0  0  0  0  0  0  0  0  0  0
  -12.6065   15.0687  -15.9725 C   0  0  0  0  0  0  0  0  0  0  0  0
  -12.0616   14.1808  -14.8505 C   0  0  2  0  0  0  0  0  0  0  0  0
  -11.4877   12.8192  -15.2790 C   0  0  0  0  0  0  0  0  0  0  0  0
  -10.0068   12.7623  -15.7886 C   0  0  0  0  0  0  0  0  0  0  0  0
   -9.7914   13.8326  -16.8780 C   0  0  0  0  0  0  0  0  0  0  0  0
   -9.1171   13.1373  -14.5760 C   0  0  0  0  0  0  0  0  0  0  0  0
   -9.6100   11.3510  -16.3257 C   0  0  1  0  0  0  0  0  0  0  0  0
   -8.1345   11.1806  -16.6888 C   0  0  0  0  0  0  0  0  0  0  0  0
   -9.9028   10.3363  -15.3636 O   0  0  0  0  0  0  0  0  0  0  0  0
  -13.2691   14.0080  -13.9197 C   0  0  0  0  0  0  0  0  0  0  0  0
  1  2  1  0
  2  3  1  0
  4  3  1  1
  4  5  1  0
  5  6  2  0
  6  7  1  0
  7  8  2  0
  8  9  1  0
  9 10  2  0
  4 11  1  0
 11 12  1  6
 12 13  1  0
 13 14  1  0
 14 15  1  6
 15 16  1  0
 16 17  1  0
 16 18  1  0
 16 19  1  0
 19 20  1  1
 19 21  1  0
 14 22  1  0
 10  5  1  0
 22 11  1  0
M  END
>  <CHROM.0>  (8) 
-59.92243218,-61.69968518,-61.09059662,58.88270042,-24.28409665,-57.12033304
63.43694452,-30.12536945

>  <CHROM.1>  (8) 
-171.69591968,-75.02759460,-114.69686248,-44.12018911,83.38207375,-50.66561393
-173.25508673,82.28420385,-13.25964092,14.38655813,-13.81958853,2.75049367
-0.59740144,1.76030957

>  <Name>  (8) 
denovo_401

>  <RI>  (8) 
3.94589e+08

>  <Rbt.Current_Directory>  (8) 
/tmp/claude-0/-home-user-Rare-cancers/1af35c7f-7dc4-53ce-91d2-1631a2a10a85/scratchpad/smwork/cross/dock_8XTT-model6

>  <Rbt.Executable>  (8) 
rbdock - v25.07-alpha

>  <Rbt.Library>  (8) 
libRbt.so (25.07, Buildalpha)

>  <Rbt.Parameter_File>  (8) 
/tmp/claude-0/-home-user-Rare-cancers/1af35c7f-7dc4-53ce-91d2-1631a2a10a85/scratchpad/rdroot/share/rDock/data/scripts/dock.prm

>  <Rbt.Receptor>  (8) 
rec.prm

>  <SCORE>  (8) 
-15.9257

>  <SCORE.INTER>  (8) 
-16.7605

>  <SCORE.INTER.CONST>  (8) 
1

>  <SCORE.INTER.POLAR>  (8) 
-0.935072

>  <SCORE.INTER.REPUL>  (8) 
0

>  <SCORE.INTER.ROT>  (8) 
7

>  <SCORE.INTER.VDW>  (8) 
-25.9812

>  <SCORE.INTER.norm>  (8) 
-0.76184

>  <SCORE.INTRA>  (8) 
4.65211

>  <SCORE.INTRA.DIHEDRAL>  (8) 
3.83529

>  <SCORE.INTRA.DIHEDRAL.0>  (8) 
3.78927

>  <SCORE.INTRA.POLAR>  (8) 
0

>  <SCORE.INTRA.POLAR.0>  (8) 
0

>  <SCORE.INTRA.REPUL>  (8) 
0

>  <SCORE.INTRA.REPUL.0>  (8) 
0

>  <SCORE.INTRA.VDW>  (8) 
2.73447

>  <SCORE.INTRA.VDW.0>  (8) 
1.02728

>  <SCORE.INTRA.norm>  (8) 
0.21146

>  <SCORE.RESTR>  (8) 
0

>  <SCORE.RESTR.CAVITY>  (8) 
0

>  <SCORE.RESTR.norm>  (8) 
0

>  <SCORE.SYSTEM>  (8) 
-3.81737

>  <SCORE.SYSTEM.CONST>  (8) 
0

>  <SCORE.SYSTEM.DIHEDRAL>  (8) 
8.3677

>  <SCORE.SYSTEM.POLAR>  (8) 
-3.31188

>  <SCORE.SYSTEM.REPUL>  (8) 
0.00476607

>  <SCORE.SYSTEM.VDW>  (8) 
3.23534

>  <SCORE.SYSTEM.norm>  (8) 
-0.173517

>  <SCORE.heavy>  (8) 
22

>  <SCORE.norm>  (8) 
-0.723897

$$$$
denovo_401
     RDKit          3D

 22 23  0  0  0  0  0  0  0  0999 V2000
  -17.6035   16.9754  -14.0026 C   0  0  0  0  0  0  0  0  0  0  0  0
  -16.5172   17.0888  -14.9123 O   0  0  0  0  0  0  0  0  0  0  0  0
  -15.2571   17.0291  -14.2400 C   0  0  0  0  0  0  0  0  0  0  0  0
  -14.9113   15.5673  -13.8816 C   0  0  2  0  0  0  0  0  0  0  0  0
  -15.2481   15.3088  -12.4171 C   0  0  0  0  0  0  0  0  0  0  0  0
  -15.9439   14.1442  -12.0588 C   0  0  0  0  0  0  0  0  0  0  0  0
  -16.2648   13.8891  -10.7244 C   0  0  0  0  0  0  0  0  0  0  0  0
  -15.8958   14.7940   -9.7320 C   0  0  0  0  0  0  0  0  0  0  0  0
  -15.2059   15.9551  -10.0727 C   0  0  0  0  0  0  0  0  0  0  0  0
  -14.8841   16.2126  -11.4065 C   0  0  0  0  0  0  0  0  0  0  0  0
  -13.4400   15.2021  -14.2052 C   0  0  2  0  0  0  0  0  0  0  0  0
  -13.0103   15.4953  -15.6464 C   0  0  0  0  0  0  0  0  0  0  0  0
  -11.8727   14.5185  -15.9601 C   0  0  0  0  0  0  0  0  0  0  0  0
  -11.7646   13.5713  -14.7621 C   0  0  2  0  0  0  0  0  0  0  0  0
  -11.4433   12.1017  -15.0842 C   0  0  0  0  0  0  0  0  0  0  0  0
   -9.9443   11.6449  -15.0619 C   0  0  0  0  0  0  0  0  0  0  0  0
   -9.4075   11.6970  -13.6169 C   0  0  0  0  0  0  0  0  0  0  0  0
   -9.9366   10.1628  -15.5152 C   0  0  0  0  0  0  0  0  0  0  0  0
   -9.0422   12.4976  -16.0089 C   0  0  1  0  0  0  0  0  0  0  0  0
   -7.5902   12.0322  -16.1231 C   0  0  0  0  0  0  0  0  0  0  0  0
   -9.5627   12.5076  -17.3393 O   0  0  0  0  0  0  0  0  0  0  0  0
  -13.1333   13.7058  -14.0818 C   0  0  0  0  0  0  0  0  0  0  0  0
  1  2  1  0
  2  3  1  0
  4  3  1  1
  4  5  1  0
  5  6  2  0
  6  7  1  0
  7  8  2  0
  8  9  1  0
  9 10  2  0
  4 11  1  0
 11 12  1  6
 12 13  1  0
 13 14  1  0
 14 15  1  6
 15 16  1  0
 16 17  1  0
 16 18  1  0
 16 19  1  0
 19 20  1  6
 19 21  1  0
 14 22  1  0
 10  5  1  0
 22 11  1  0
M  END
>  <CHROM.0>  (9) 
-55.39726883,-64.67728128,65.17780347,174.79980780,-24.34905481,-56.83133879
-71.74745104,-30.09106063

>  <CHROM.1>  (9) 
78.03717270,-99.67186417,133.96880653,-53.51598809,93.55651052,67.61451201
-175.17091002,75.40335518,-13.02463088,14.16692875,-14.04359533,2.98731174
-0.65522747,2.03620648

>  <Name>  (9) 
denovo_401

>  <RI>  (9) 
3.94589e+08

>  <Rbt.Current_Directory>  (9) 
/tmp/claude-0/-home-user-Rare-cancers/1af35c7f-7dc4-53ce-91d2-1631a2a10a85/scratchpad/smwork/cross/dock_8XTT-model6

>  <Rbt.Executable>  (9) 
rbdock - v25.07-alpha

>  <Rbt.Library>  (9) 
libRbt.so (25.07, Buildalpha)

>  <Rbt.Parameter_File>  (9) 
/tmp/claude-0/-home-user-Rare-cancers/1af35c7f-7dc4-53ce-91d2-1631a2a10a85/scratchpad/rdroot/share/rDock/data/scripts/dock.prm

>  <Rbt.Receptor>  (9) 
rec.prm

>  <SCORE>  (9) 
-15.9109

>  <SCORE.INTER>  (9) 
-13.3476

>  <SCORE.INTER.CONST>  (9) 
1

>  <SCORE.INTER.POLAR>  (9) 
-1.17187

>  <SCORE.INTER.REPUL>  (9) 
0

>  <SCORE.INTER.ROT>  (9) 
7

>  <SCORE.INTER.VDW>  (9) 
-21.7633

>  <SCORE.INTER.norm>  (9) 
-0.606711

>  <SCORE.INTRA>  (9) 
4.77623

>  <SCORE.INTRA.DIHEDRAL>  (9) 
7.72901

>  <SCORE.INTRA.DIHEDRAL.0>  (9) 
3.78927

>  <SCORE.INTRA.POLAR>  (9) 
0

>  <SCORE.INTRA.POLAR.0>  (9) 
0

>  <SCORE.INTRA.REPUL>  (9) 
0

>  <SCORE.INTRA.REPUL.0>  (9) 
0

>  <SCORE.INTRA.VDW>  (9) 
0.911727

>  <SCORE.INTRA.VDW.0>  (9) 
1.02728

>  <SCORE.INTRA.norm>  (9) 
0.217102

>  <SCORE.RESTR>  (9) 
0

>  <SCORE.RESTR.CAVITY>  (9) 
0

>  <SCORE.RESTR.norm>  (9) 
0

>  <SCORE.SYSTEM>  (9) 
-7.33948

>  <SCORE.SYSTEM.CONST>  (9) 
0

>  <SCORE.SYSTEM.DIHEDRAL>  (9) 
9.36106

>  <SCORE.SYSTEM.POLAR>  (9) 
-3.77337

>  <SCORE.SYSTEM.VDW>  (9) 
0.809431

>  <SCORE.SYSTEM.norm>  (9) 
-0.333613

>  <SCORE.heavy>  (9) 
22

>  <SCORE.norm>  (9) 
-0.723222

$$$$
denovo_401
     RDKit          3D

 22 23  0  0  0  0  0  0  0  0999 V2000
  -17.3449   16.9741  -14.0692 C   0  0  0  0  0  0  0  0  0  0  0  0
  -16.2891   17.0636  -15.0166 O   0  0  0  0  0  0  0  0  0  0  0  0
  -15.0076   17.0100  -14.3856 C   0  0  0  0  0  0  0  0  0  0  0  0
  -14.6858   15.5633  -13.9513 C   0  0  2  0  0  0  0  0  0  0  0  0
  -14.9856   15.3994  -12.4653 C   0  0  0  0  0  0  0  0  0  0  0  0
  -13.9690   15.6166  -11.5229 C   0  0  0  0  0  0  0  0  0  0  0  0
  -14.2207   15.4696  -10.1577 C   0  0  0  0  0  0  0  0  0  0  0  0
  -15.4901   15.1028   -9.7172 C   0  0  0  0  0  0  0  0  0  0  0  0
  -16.5090   14.8824  -10.6411 C   0  0  0  0  0  0  0  0  0  0  0  0
  -16.2596   15.0286  -12.0068 C   0  0  0  0  0  0  0  0  0  0  0  0
  -13.2336   15.1430  -14.2935 C   0  0  2  0  0  0  0  0  0  0  0  0
  -12.8317   15.3631  -15.7556 C   0  0  0  0  0  0  0  0  0  0  0  0
  -11.7296   14.3419  -16.0541 C   0  0  0  0  0  0  0  0  0  0  0  0
  -11.6181   13.4431  -14.8197 C   0  0  2  0  0  0  0  0  0  0  0  0
  -11.3454   11.9526  -15.0864 C   0  0  0  0  0  0  0  0  0  0  0  0
   -9.8631   11.4463  -15.0371 C   0  0  0  0  0  0  0  0  0  0  0  0
   -9.4394   10.9449  -16.4327 C   0  0  0  0  0  0  0  0  0  0  0  0
   -8.9942   12.6836  -14.6960 C   0  0  0  0  0  0  0  0  0  0  0  0
   -9.6449   10.3295  -13.9680 C   0  0  1  0  0  0  0  0  0  0  0  0
   -9.8392   10.7673  -12.5159 C   0  0  0  0  0  0  0  0  0  0  0  0
  -10.5423    9.2378  -14.1779 O   0  0  0  0  0  0  0  0  0  0  0  0
  -12.9653   13.6451  -14.1137 C   0  0  0  0  0  0  0  0  0  0  0  0
  1  2  1  0
  2  3  1  0
  4  3  1  1
  4  5  1  0
  5  6  2  0
  6  7  1  0
  7  8  2  0
  8  9  1  0
  9 10  2  0
  4 11  1  0
 11 12  1  6
 12 13  1  0
 13 14  1  0
 14 15  1  6
 15 16  1  0
 16 17  1  0
 16 18  1  0
 16 19  1  0
 19 20  1  1
 19 21  1  0
 14 22  1  0
 10  5  1  0
 22 11  1  0
M  END
>  <CHROM.0>  (10) 
-176.27758013,-63.39689417,61.12933787,57.78199230,-175.59970985,60.06984371
-69.65576255,67.05061789

>  <CHROM.1>  (10) 
75.42166100,-99.26928925,-92.05630639,-52.51556543,95.37402228,-115.79300975
-65.39361316,71.73891741,-12.99146212,13.92155007,-13.74151879,-3.12620331
-0.74465928,1.98912155

>  <Name>  (10) 
denovo_401

>  <RI>  (10) 
3.94589e+08

>  <Rbt.Current_Directory>  (10) 
/tmp/claude-0/-home-user-Rare-cancers/1af35c7f-7dc4-53ce-91d2-1631a2a10a85/scratchpad/smwork/cross/dock_8XTT-model6

>  <Rbt.Executable>  (10) 
rbdock - v25.07-alpha

>  <Rbt.Library>  (10) 
libRbt.so (25.07, Buildalpha)

>  <Rbt.Parameter_File>  (10) 
/tmp/claude-0/-home-user-Rare-cancers/1af35c7f-7dc4-53ce-91d2-1631a2a10a85/scratchpad/rdroot/share/rDock/data/scripts/dock.prm

>  <Rbt.Receptor>  (10) 
rec.prm

>  <SCORE>  (10) 
-15.3656

>  <SCORE.INTER>  (10) 
-18.9955

>  <SCORE.INTER.CONST>  (10) 
1

>  <SCORE.INTER.POLAR>  (10) 
-1.81658

>  <SCORE.INTER.REPUL>  (10) 
0.00730111

>  <SCORE.INTER.ROT>  (10) 
7

>  <SCORE.INTER.VDW>  (10) 
-25.2557

>  <SCORE.INTER.norm>  (10) 
-0.863433

>  <SCORE.INTRA>  (10) 
12.1597

>  <SCORE.INTRA.DIHEDRAL>  (10) 
14.0577

>  <SCORE.INTRA.DIHEDRAL.0>  (10) 
3.78927

>  <SCORE.INTRA.POLAR>  (10) 
0

>  <SCORE.INTRA.POLAR.0>  (10) 
0

>  <SCORE.INTRA.REPUL>  (10) 
0

>  <SCORE.INTRA.REPUL.0>  (10) 
0

>  <SCORE.INTRA.VDW>  (10) 
5.1308

>  <SCORE.INTRA.VDW.0>  (10) 
1.02728

>  <SCORE.INTRA.norm>  (10) 
0.552712

>  <SCORE.RESTR>  (10) 
0

>  <SCORE.RESTR.CAVITY>  (10) 
0

>  <SCORE.RESTR.norm>  (10) 
0

>  <SCORE.SYSTEM>  (10) 
-8.5298

>  <SCORE.SYSTEM.CONST>  (10) 
0

>  <SCORE.SYSTEM.DIHEDRAL>  (10) 
0.93972

>  <SCORE.SYSTEM.POLAR>  (10) 
-2.09495

>  <SCORE.SYSTEM.REPUL>  (10) 
0.0247247

>  <SCORE.SYSTEM.VDW>  (10) 
-2.00046

>  <SCORE.SYSTEM.norm>  (10) 
-0.387718

>  <SCORE.heavy>  (10) 
22

>  <SCORE.norm>  (10) 
-0.698439

$$$$
denovo_401
     RDKit          3D

 22 23  0  0  0  0  0  0  0  0999 V2000
  -17.5278   16.9791  -14.0375 C   0  0  0  0  0  0  0  0  0  0  0  0
  -16.4235   17.1162  -14.9218 O   0  0  0  0  0  0  0  0  0  0  0  0
  -15.1789   17.0997  -14.2188 C   0  0  0  0  0  0  0  0  0  0  0  0
  -14.8020   15.6525  -13.8335 C   0  0  2  0  0  0  0  0  0  0  0  0
  -15.0459   15.4425  -12.3430 C   0  0  0  0  0  0  0  0  0  0  0  0
  -16.3108   15.0304  -11.8969 C   0  0  0  0  0  0  0  0  0  0  0  0
  -16.5567   14.8348  -10.5368 C   0  0  0  0  0  0  0  0  0  0  0  0
  -15.5432   15.0493   -9.6058 C   0  0  0  0  0  0  0  0  0  0  0  0
  -14.2828   15.4599  -10.0337 C   0  0  0  0  0  0  0  0  0  0  0  0
  -14.0345   15.6564  -11.3933 C   0  0  0  0  0  0  0  0  0  0  0  0
  -13.3511   15.2831  -14.2351 C   0  0  2  0  0  0  0  0  0  0  0  0
  -13.0194   15.5096  -15.7137 C   0  0  0  0  0  0  0  0  0  0  0  0
  -11.8943   14.5274  -16.0545 C   0  0  0  0  0  0  0  0  0  0  0  0
  -11.6983   13.6399  -14.8224 C   0  0  2  0  0  0  0  0  0  0  0  0
  -11.3831   12.1589  -15.0944 C   0  0  0  0  0  0  0  0  0  0  0  0
   -9.8865   11.7417  -15.2999 C   0  0  0  0  0  0  0  0  0  0  0  0
   -9.0084   12.4118  -14.2235 C   0  0  0  0  0  0  0  0  0  0  0  0
   -9.8287   10.2100  -15.0698 C   0  0  0  0  0  0  0  0  0  0  0  0
   -9.3569   12.0875  -16.7274 C   0  0  1  0  0  0  0  0  0  0  0  0
   -9.2505   13.5801  -17.0415 C   0  0  0  0  0  0  0  0  0  0  0  0
   -8.0525   11.5431  -16.9351 O   0  0  0  0  0  0  0  0  0  0  0  0
  -13.0211   13.7969  -14.0608 C   0  0  0  0  0  0  0  0  0  0  0  0
  1  2  1  0
  2  3  1  0
  4  3  1  1
  4  5  1  0
  5  6  2  0
  6  7  1  0
  7  8  2  0
  8  9  1  0
  9 10  2  0
  4 11  1  0
 11 12  1  6
 12 13  1  0
 13 14  1  0
 14 15  1  6
 15 16  1  0
 16 17  1  0
 16 18  1  0
 16 19  1  0
 19 20  1  1
 19 21  1  0
 14 22  1  0
 10  5  1  0
 22 11  1  0
M  END
>  <CHROM.0>  (11) 
-176.84942644,-61.93997315,-61.01421780,-64.79041802,-26.11719671,-62.78393564
-72.94631695,68.79146929

>  <CHROM.1>  (11) 
77.83045713,-104.90770723,87.83929240,-54.37513389,87.16995156,45.09686247
66.62198395,68.90188309,-12.90533925,14.28061887,-14.09901654,2.90107959
-0.65814416,1.94560756

>  <Name>  (11) 
denovo_401

>  <RI>  (11) 
3.94589e+08

>  <Rbt.Current_Directory>  (11) 
/tmp/claude-0/-home-user-Rare-cancers/1af35c7f-7dc4-53ce-91d2-1631a2a10a85/scratchpad/smwork/cross/dock_8XTT-model6

>  <Rbt.Executable>  (11) 
rbdock - v25.07-alpha

>  <Rbt.Library>  (11) 
libRbt.so (25.07, Buildalpha)

>  <Rbt.Parameter_File>  (11) 
/tmp/claude-0/-home-user-Rare-cancers/1af35c7f-7dc4-53ce-91d2-1631a2a10a85/scratchpad/rdroot/share/rDock/data/scripts/dock.prm

>  <Rbt.Receptor>  (11) 
rec.prm

>  <SCORE>  (11) 
-14.7267

>  <SCORE.INTER>  (11) 
-15.385

>  <SCORE.INTER.CONST>  (11) 
1

>  <SCORE.INTER.POLAR>  (11) 
-0.824621

>  <SCORE.INTER.REPUL>  (11) 
0

>  <SCORE.INTER.ROT>  (11) 
7

>  <SCORE.INTER.VDW>  (11) 
-24.9813

>  <SCORE.INTER.norm>  (11) 
-0.699318

>  <SCORE.INTRA>  (11) 
7.15247

>  <SCORE.INTRA.DIHEDRAL>  (11) 
7.69724

>  <SCORE.INTRA.DIHEDRAL.0>  (11) 
3.78927

>  <SCORE.INTRA.POLAR>  (11) 
0

>  <SCORE.INTRA.POLAR.0>  (11) 
0

>  <SCORE.INTRA.REPUL>  (11) 
0

>  <SCORE.INTRA.REPUL.0>  (11) 
0

>  <SCORE.INTRA.VDW>  (11) 
3.30385

>  <SCORE.INTRA.VDW.0>  (11) 
1.02728

>  <SCORE.INTRA.norm>  (11) 
0.325112

>  <SCORE.RESTR>  (11) 
0

>  <SCORE.RESTR.CAVITY>  (11) 
0

>  <SCORE.RESTR.norm>  (11) 
0

>  <SCORE.SYSTEM>  (11) 
-6.49414

>  <SCORE.SYSTEM.CONST>  (11) 
0

>  <SCORE.SYSTEM.DIHEDRAL>  (11) 
5.6744

>  <SCORE.SYSTEM.POLAR>  (11) 
-2.96539

>  <SCORE.SYSTEM.VDW>  (11) 
0.751

>  <SCORE.SYSTEM.norm>  (11) 
-0.295188

>  <SCORE.heavy>  (11) 
22

>  <SCORE.norm>  (11) 
-0.669394

$$$$
denovo_401
     RDKit          3D

 22 23  0  0  0  0  0  0  0  0999 V2000
  -17.9280   16.9021  -14.0072 C   0  0  0  0  0  0  0  0  0  0  0  0
  -16.7946   16.6984  -14.8405 O   0  0  0  0  0  0  0  0  0  0  0  0
  -15.5720   16.8822  -14.1230 C   0  0  0  0  0  0  0  0  0  0  0  0
  -15.0231   15.5202  -13.6447 C   0  0  2  0  0  0  0  0  0  0  0  0
  -15.1525   15.4233  -12.1285 C   0  0  0  0  0  0  0  0  0  0  0  0
  -14.0086   15.5396  -11.3243 C   0  0  0  0  0  0  0  0  0  0  0  0
  -14.1038   15.4514   -9.9344 C   0  0  0  0  0  0  0  0  0  0  0  0
  -15.3420   15.2448   -9.3309 C   0  0  0  0  0  0  0  0  0  0  0  0
  -16.4862   15.1261  -10.1164 C   0  0  0  0  0  0  0  0  0  0  0  0
  -16.3934   15.2138  -11.5066 C   0  0  0  0  0  0  0  0  0  0  0  0
  -13.5687   15.2611  -14.1142 C   0  0  2  0  0  0  0  0  0  0  0  0
  -13.3132   15.5540  -15.5963 C   0  0  0  0  0  0  0  0  0  0  0  0
  -12.1410   14.6600  -16.0126 C   0  0  0  0  0  0  0  0  0  0  0  0
  -11.8371   13.7507  -14.8190 C   0  0  2  0  0  0  0  0  0  0  0  0
  -11.4367   12.3030  -15.1517 C   0  0  0  0  0  0  0  0  0  0  0  0
   -9.9154   11.9746  -15.3359 C   0  0  0  0  0  0  0  0  0  0  0  0
   -9.0998   12.6462  -14.2123 C   0  0  0  0  0  0  0  0  0  0  0  0
   -9.7800   10.4401  -15.1651 C   0  0  0  0  0  0  0  0  0  0  0  0
   -9.3728   12.4061  -16.7350 C   0  0  1  0  0  0  0  0  0  0  0  0
   -9.3488   13.9134  -16.9907 C   0  0  0  0  0  0  0  0  0  0  0  0
   -8.0332   11.9484  -16.9276 O   0  0  0  0  0  0  0  0  0  0  0  0
  -13.1351   13.7956  -14.0020 C   0  0  0  0  0  0  0  0  0  0  0  0
  1  2  1  0
  2  3  1  0
  4  3  1  1
  4  5  1  0
  5  6  2  0
  6  7  1  0
  7  8  2  0
  8  9  1  0
  9 10  2  0
  4 11  1  0
 11 12  1  6
 12 13  1  0
 13 14  1  0
 14 15  1  6
 15 16  1  0
 16 17  1  0
 16 18  1  0
 16 19  1  0
 19 20  1  1
 19 21  1  0
 14 22  1  0
 10  5  1  0
 22 11  1  0
M  END
>  <CHROM.0>  (12) 
-57.27882054,-179.03111735,-59.30253553,63.38294372,-173.18225070,-57.53897145
-69.88893198,-170.05051353

>  <CHROM.1>  (12) 
96.61269576,-110.02042926,-106.22495897,-47.08389088,91.12315068,44.64183612
66.23550101,72.49602643,-13.01489718,14.36511338,-14.00924460,2.78417178
-0.59157949,1.80423323

>  <Name>  (12) 
denovo_401

>  <RI>  (12) 
3.94589e+08

>  <Rbt.Current_Directory>  (12) 
/tmp/claude-0/-home-user-Rare-cancers/1af35c7f-7dc4-53ce-91d2-1631a2a10a85/scratchpad/smwork/cross/dock_8XTT-model6

>  <Rbt.Executable>  (12) 
rbdock - v25.07-alpha

>  <Rbt.Library>  (12) 
libRbt.so (25.07, Buildalpha)

>  <Rbt.Parameter_File>  (12) 
/tmp/claude-0/-home-user-Rare-cancers/1af35c7f-7dc4-53ce-91d2-1631a2a10a85/scratchpad/rdroot/share/rDock/data/scripts/dock.prm

>  <Rbt.Receptor>  (12) 
rec.prm

>  <SCORE>  (12) 
-13.1820

>  <SCORE.INTER>  (12) 
-15.255

>  <SCORE.INTER.CONST>  (12) 
1

>  <SCORE.INTER.POLAR>  (12) 
-0.824621

>  <SCORE.INTER.REPUL>  (12) 
0

>  <SCORE.INTER.ROT>  (12) 
7

>  <SCORE.INTER.VDW>  (12) 
-24.8513

>  <SCORE.INTER.norm>  (12) 
-0.69341

>  <SCORE.INTRA>  (12) 
9.0786

>  <SCORE.INTRA.DIHEDRAL>  (12) 
13.0807

>  <SCORE.INTRA.DIHEDRAL.0>  (12) 
3.78927

>  <SCORE.INTRA.POLAR>  (12) 
0

>  <SCORE.INTRA.POLAR.0>  (12) 
0

>  <SCORE.INTRA.REPUL>  (12) 
0

>  <SCORE.INTRA.REPUL.0>  (12) 
0

>  <SCORE.INTRA.VDW>  (12) 
2.53824

>  <SCORE.INTRA.VDW.0>  (12) 
1.02728

>  <SCORE.INTRA.norm>  (12) 
0.412664

>  <SCORE.RESTR>  (12) 
0

>  <SCORE.RESTR.CAVITY>  (12) 
0

>  <SCORE.RESTR.norm>  (12) 
0

>  <SCORE.SYSTEM>  (12) 
-7.00555

>  <SCORE.SYSTEM.CONST>  (12) 
0

>  <SCORE.SYSTEM.DIHEDRAL>  (12) 
1.28282

>  <SCORE.SYSTEM.POLAR>  (12) 
-1.52974

>  <SCORE.SYSTEM.VDW>  (12) 
-2.44585

>  <SCORE.SYSTEM.norm>  (12) 
-0.318434

>  <SCORE.heavy>  (12) 
22

>  <SCORE.norm>  (12) 
-0.599181

$$$$
denovo_401
     RDKit          3D

 22 23  0  0  0  0  0  0  0  0999 V2000
  -17.5894   16.9636  -14.0529 C   0  0  0  0  0  0  0  0  0  0  0  0
  -16.4646   17.1243  -14.9070 O   0  0  0  0  0  0  0  0  0  0  0  0
  -15.2388   17.1231  -14.1716 C   0  0  0  0  0  0  0  0  0  0  0  0
  -14.8439   15.6787  -13.7936 C   0  0  2  0  0  0  0  0  0  0  0  0
  -15.0586   15.4669  -12.2989 C   0  0  0  0  0  0  0  0  0  0  0  0
  -16.3302   15.1137  -11.8224 C   0  0  0  0  0  0  0  0  0  0  0  0
  -16.5497   14.9175  -10.4579 C   0  0  0  0  0  0  0  0  0  0  0  0
  -15.5026   15.0727   -9.5526 C   0  0  0  0  0  0  0  0  0  0  0  0
  -14.2351   15.4244  -10.0107 C   0  0  0  0  0  0  0  0  0  0  0  0
  -14.0132   15.6214  -11.3748 C   0  0  0  0  0  0  0  0  0  0  0  0
  -13.3980   15.3203  -14.2220 C   0  0  2  0  0  0  0  0  0  0  0  0
  -13.0946   15.5517  -15.7059 C   0  0  0  0  0  0  0  0  0  0  0  0
  -11.9690   14.5781  -16.0688 C   0  0  0  0  0  0  0  0  0  0  0  0
  -11.7445   13.6899  -14.8421 C   0  0  2  0  0  0  0  0  0  0  0  0
  -11.4239   12.2116  -15.1226 C   0  0  0  0  0  0  0  0  0  0  0  0
   -9.9225   11.7936  -15.2878 C   0  0  0  0  0  0  0  0  0  0  0  0
   -9.0770   12.4452  -14.1745 C   0  0  0  0  0  0  0  0  0  0  0  0
   -9.8751   10.2585  -15.0794 C   0  0  0  0  0  0  0  0  0  0  0  0
   -9.3480   12.1597  -16.6927 C   0  0  1  0  0  0  0  0  0  0  0  0
   -9.2729   13.6559  -16.9989 C   0  0  0  0  0  0  0  0  0  0  0  0
   -8.0212   11.6542  -16.8506 O   0  0  0  0  0  0  0  0  0  0  0  0
  -13.0544   13.8362  -14.0565 C   0  0  0  0  0  0  0  0  0  0  0  0
  1  2  1  0
  2  3  1  0
  4  3  1  1
  4  5  1  0
  5  6  2  0
  6  7  1  0
  7  8  2  0
  8  9  1  0
  9 10  2  0
  4 11  1  0
 11 12  1  6
 12 13  1  0
 13 14  1  0
 14 15  1  6
 15 16  1  0
 16 17  1  0
 16 18  1  0
 16 19  1  0
 19 20  1  1
 19 21  1  0
 14 22  1  0
 10  5  1  0
 22 11  1  0
M  END
>  <CHROM.0>  (13) 
-176.36257154,-62.30610468,63.37213272,-63.66803419,-20.71412966,-175.63344473
-73.05096183,68.54574626

>  <CHROM.1>  (13) 
78.20148297,-107.64823014,84.49147334,-54.26828735,90.05039009,45.27442143
64.63645175,69.63883441,-12.93170857,14.31989877,-14.07377922,2.88754078
-0.65026895,1.92737843

>  <Name>  (13) 
denovo_401

>  <RI>  (13) 
3.94589e+08

>  <Rbt.Current_Directory>  (13) 
/tmp/claude-0/-home-user-Rare-cancers/1af35c7f-7dc4-53ce-91d2-1631a2a10a85/scratchpad/smwork/cross/dock_8XTT-model6

>  <Rbt.Executable>  (13) 
rbdock - v25.07-alpha

>  <Rbt.Library>  (13) 
libRbt.so (25.07, Buildalpha)

>  <Rbt.Parameter_File>  (13) 
/tmp/claude-0/-home-user-Rare-cancers/1af35c7f-7dc4-53ce-91d2-1631a2a10a85/scratchpad/rdroot/share/rDock/data/scripts/dock.prm

>  <Rbt.Receptor>  (13) 
rec.prm

>  <SCORE>  (13) 
-12.8086

>  <SCORE.INTER>  (13) 
-15.3909

>  <SCORE.INTER.CONST>  (13) 
1

>  <SCORE.INTER.POLAR>  (13) 
-0.824621

>  <SCORE.INTER.REPUL>  (13) 
0

>  <SCORE.INTER.ROT>  (13) 
7

>  <SCORE.INTER.VDW>  (13) 
-24.9872

>  <SCORE.INTER.norm>  (13) 
-0.699588

>  <SCORE.INTRA>  (13) 
7.21384

>  <SCORE.INTRA.DIHEDRAL>  (13) 
8.46228

>  <SCORE.INTRA.DIHEDRAL.0>  (13) 
3.78927

>  <SCORE.INTRA.POLAR>  (13) 
0

>  <SCORE.INTRA.POLAR.0>  (13) 
0

>  <SCORE.INTRA.REPUL>  (13) 
0

>  <SCORE.INTRA.REPUL.0>  (13) 
0

>  <SCORE.INTRA.VDW>  (13) 
2.9827

>  <SCORE.INTRA.VDW.0>  (13) 
1.02728

>  <SCORE.INTRA.norm>  (13) 
0.327902

>  <SCORE.RESTR>  (13) 
0

>  <SCORE.RESTR.CAVITY>  (13) 
0

>  <SCORE.RESTR.norm>  (13) 
0

>  <SCORE.SYSTEM>  (13) 
-4.63151

>  <SCORE.SYSTEM.CONST>  (13) 
0

>  <SCORE.SYSTEM.DIHEDRAL>  (13) 
6.72818

>  <SCORE.SYSTEM.POLAR>  (13) 
-2.87879

>  <SCORE.SYSTEM.REPUL>  (13) 
0.306779

>  <SCORE.SYSTEM.VDW>  (13) 
0.258393

>  <SCORE.SYSTEM.norm>  (13) 
-0.210523

>  <SCORE.heavy>  (13) 
22

>  <SCORE.norm>  (13) 
-0.582209

$$$$
denovo_401
     RDKit          3D

 22 23  0  0  0  0  0  0  0  0999 V2000
  -18.1302   16.9761  -14.1996 C   0  0  0  0  0  0  0  0  0  0  0  0
  -16.8911   16.7434  -14.8559 O   0  0  0  0  0  0  0  0  0  0  0  0
  -15.7816   16.9582  -13.9806 C   0  0  0  0  0  0  0  0  0  0  0  0
  -15.1589   15.6072  -13.5656 C   0  0  2  0  0  0  0  0  0  0  0  0
  -15.2312   15.4576  -12.0498 C   0  0  0  0  0  0  0  0  0  0  0  0
  -14.0616   15.5728  -11.2833 C   0  0  0  0  0  0  0  0  0  0  0  0
  -14.1045   15.4368   -9.8947 C   0  0  0  0  0  0  0  0  0  0  0  0
  -15.3153   15.1831   -9.2548 C   0  0  0  0  0  0  0  0  0  0  0  0
  -16.4845   15.0649  -10.0027 C   0  0  0  0  0  0  0  0  0  0  0  0
  -16.4441   15.2002  -11.3915 C   0  0  0  0  0  0  0  0  0  0  0  0
  -13.7121   15.4264  -14.0916 C   0  0  2  0  0  0  0  0  0  0  0  0
  -13.5370   15.7007  -15.5889 C   0  0  0  0  0  0  0  0  0  0  0  0
  -12.3301   14.8705  -16.0370 C   0  0  0  0  0  0  0  0  0  0  0  0
  -11.9213   14.0086  -14.8395 C   0  0  2  0  0  0  0  0  0  0  0  0
  -11.4465   12.5808  -15.1599 C   0  0  0  0  0  0  0  0  0  0  0  0
   -9.9349   12.3595  -15.5098 C   0  0  0  0  0  0  0  0  0  0  0  0
   -9.6200   12.9986  -16.8777 C   0  0  0  0  0  0  0  0  0  0  0  0
   -9.1248   13.1256  -14.4331 C   0  0  0  0  0  0  0  0  0  0  0  0
   -9.5324   10.8510  -15.5080 C   0  0  1  0  0  0  0  0  0  0  0  0
   -9.8990   10.0778  -14.2409 C   0  0  0  0  0  0  0  0  0  0  0  0
  -10.1507   10.1551  -16.5917 O   0  0  0  0  0  0  0  0  0  0  0  0
  -13.1845   13.9930  -13.9687 C   0  0  0  0  0  0  0  0  0  0  0  0
  1  2  1  0
  2  3  1  0
  4  3  1  1
  4  5  1  0
  5  6  2  0
  6  7  1  0
  7  8  2  0
  8  9  1  0
  9 10  2  0
  4 11  1  0
 11 12  1  6
 12 13  1  0
 13 14  1  0
 14 15  1  6
 15 16  1  0
 16 17  1  0
 16 18  1  0
 16 19  1  0
 19 20  1  1
 19 21  1  0
 14 22  1  0
 10  5  1  0
 22 11  1  0
M  END
>  <CHROM.0>  (14) 
-174.70328570,178.09365746,-59.67783064,-61.35711997,-173.45653417,64.25070164
-173.28971865,-31.99879992

>  <CHROM.1>  (14) 
106.17248742,-119.95856203,-107.46168760,-50.34317216,86.54170651,-69.01777090
-52.36337450,-65.63610915,-13.23272830,14.24341217,-13.88393644,2.83501774
-0.67595628,1.77763051

>  <Name>  (14) 
denovo_401

>  <RI>  (14) 
3.94589e+08

>  <Rbt.Current_Directory>  (14) 
/tmp/claude-0/-home-user-Rare-cancers/1af35c7f-7dc4-53ce-91d2-1631a2a10a85/scratchpad/smwork/cross/dock_8XTT-model6

>  <Rbt.Executable>  (14) 
rbdock - v25.07-alpha

>  <Rbt.Library>  (14) 
libRbt.so (25.07, Buildalpha)

>  <Rbt.Parameter_File>  (14) 
/tmp/claude-0/-home-user-Rare-cancers/1af35c7f-7dc4-53ce-91d2-1631a2a10a85/scratchpad/rdroot/share/rDock/data/scripts/dock.prm

>  <Rbt.Receptor>  (14) 
rec.prm

>  <SCORE>  (14) 
-12.7984

>  <SCORE.INTER>  (14) 
-18.7007

>  <SCORE.INTER.CONST>  (14) 
1

>  <SCORE.INTER.POLAR>  (14) 
-1.81964

>  <SCORE.INTER.REPUL>  (14) 
0

>  <SCORE.INTER.ROT>  (14) 
7

>  <SCORE.INTER.VDW>  (14) 
-24.9139

>  <SCORE.INTER.norm>  (14) 
-0.850032

>  <SCORE.INTRA>  (14) 
8.31732

>  <SCORE.INTRA.DIHEDRAL>  (14) 
12.5721

>  <SCORE.INTRA.DIHEDRAL.0>  (14) 
3.78927

>  <SCORE.INTRA.POLAR>  (14) 
0

>  <SCORE.INTRA.POLAR.0>  (14) 
0

>  <SCORE.INTRA.REPUL>  (14) 
0

>  <SCORE.INTRA.REPUL.0>  (14) 
0

>  <SCORE.INTRA.VDW>  (14) 
2.03126

>  <SCORE.INTRA.VDW.0>  (14) 
1.02728

>  <SCORE.INTRA.norm>  (14) 
0.37806

>  <SCORE.RESTR>  (14) 
0

>  <SCORE.RESTR.CAVITY>  (14) 
0

>  <SCORE.RESTR.norm>  (14) 
0

>  <SCORE.SYSTEM>  (14) 
-2.41507

>  <SCORE.SYSTEM.CONST>  (14) 
0

>  <SCORE.SYSTEM.DIHEDRAL>  (14) 
3.91009

>  <SCORE.SYSTEM.POLAR>  (14) 
-1.1973

>  <SCORE.SYSTEM.REPUL>  (14) 
0.0892994

>  <SCORE.SYSTEM.VDW>  (14) 
-0.745799

>  <SCORE.SYSTEM.norm>  (14) 
-0.109776

>  <SCORE.heavy>  (14) 
22

>  <SCORE.norm>  (14) 
-0.581748

$$$$
denovo_401
     RDKit          3D

 22 23  0  0  0  0  0  0  0  0999 V2000
  -18.2885   17.3420  -14.1253 C   0  0  0  0  0  0  0  0  0  0  0  0
  -17.4443   16.3505  -13.5556 O   0  0  0  0  0  0  0  0  0  0  0  0
  -16.0757   16.5520  -13.9156 C   0  0  0  0  0  0  0  0  0  0  0  0
  -15.2260   15.3351  -13.4887 C   0  0  2  0  0  0  0  0  0  0  0  0
  -15.2163   15.2296  -11.9675 C   0  0  0  0  0  0  0  0  0  0  0  0
  -14.0294   15.4767  -11.2611 C   0  0  0  0  0  0  0  0  0  0  0  0
  -13.9973   15.3832   -9.8687 C   0  0  0  0  0  0  0  0  0  0  0  0
  -15.1495   15.0407   -9.1650 C   0  0  0  0  0  0  0  0  0  0  0  0
  -16.3348   14.7912   -9.8527 C   0  0  0  0  0  0  0  0  0  0  0  0
  -16.3693   14.8838  -11.2452 C   0  0  0  0  0  0  0  0  0  0  0  0
  -13.7898   15.3722  -14.0705 C   0  0  2  0  0  0  0  0  0  0  0  0
  -13.7085   15.7677  -15.5485 C   0  0  0  0  0  0  0  0  0  0  0  0
  -12.4279   15.1268  -16.0925 C   0  0  0  0  0  0  0  0  0  0  0  0
  -11.8702   14.2427  -14.9738 C   0  0  2  0  0  0  0  0  0  0  0  0
  -11.2377   12.9104  -15.4116 C   0  0  0  0  0  0  0  0  0  0  0  0
   -9.7394   12.9127  -15.8712 C   0  0  0  0  0  0  0  0  0  0  0  0
   -9.5505   13.9251  -17.0193 C   0  0  0  0  0  0  0  0  0  0  0  0
   -8.9154   13.4152  -14.6584 C   0  0  0  0  0  0  0  0  0  0  0  0
   -9.2420   11.4979  -16.3054 C   0  0  1  0  0  0  0  0  0  0  0  0
   -9.6789   10.3450  -15.4011 C   0  0  0  0  0  0  0  0  0  0  0  0
   -9.7058   11.1726  -17.6170 O   0  0  0  0  0  0  0  0  0  0  0  0
  -13.0869   14.0106  -14.0682 C   0  0  0  0  0  0  0  0  0  0  0  0
  1  2  1  0
  2  3  1  0
  4  3  1  1
  4  5  1  0
  5  6  2  0
  6  7  1  0
  7  8  2  0
  8  9  1  0
  9 10  2  0
  4 11  1  0
 11 12  1  6
 12 13  1  0
 13 14  1  0
 14 15  1  6
 15 16  1  0
 16 17  1  0
 16 18  1  0
 16 19  1  0
 19 20  1  1
 19 21  1  0
 14 22  1  0
 10  5  1  0
 22 11  1  0
M  END
>  <CHROM.0>  (15) 
-175.14402656,63.94303994,-62.19864837,-63.86000024,-176.80470261,-58.23714554
61.50298863,-34.79863226

>  <CHROM.1>  (15) 
-170.30128971,-65.24448497,-111.51877632,-44.01872216,84.40790456,-55.76518529
-42.77560423,170.25549193,-13.18791991,14.37925867,-13.98803747,2.70663729
-0.58464143,1.75266701

>  <Name>  (15) 
denovo_401

>  <RI>  (15) 
3.94589e+08

>  <Rbt.Current_Directory>  (15) 
/tmp/claude-0/-home-user-Rare-cancers/1af35c7f-7dc4-53ce-91d2-1631a2a10a85/scratchpad/smwork/cross/dock_8XTT-model6

>  <Rbt.Executable>  (15) 
rbdock - v25.07-alpha

>  <Rbt.Library>  (15) 
libRbt.so (25.07, Buildalpha)

>  <Rbt.Parameter_File>  (15) 
/tmp/claude-0/-home-user-Rare-cancers/1af35c7f-7dc4-53ce-91d2-1631a2a10a85/scratchpad/rdroot/share/rDock/data/scripts/dock.prm

>  <Rbt.Receptor>  (15) 
rec.prm

>  <SCORE>  (15) 
-11.8122

>  <SCORE.INTER>  (15) 
-12.6828

>  <SCORE.INTER.CONST>  (15) 
1

>  <SCORE.INTER.POLAR>  (15) 
-0.270422

>  <SCORE.INTER.REPUL>  (15) 
0

>  <SCORE.INTER.ROT>  (15) 
7

>  <SCORE.INTER.VDW>  (15) 
-24.1634

>  <SCORE.INTER.norm>  (15) 
-0.576492

>  <SCORE.INTRA>  (15) 
3.88762

>  <SCORE.INTRA.DIHEDRAL>  (15) 
2.45921

>  <SCORE.INTRA.DIHEDRAL.0>  (15) 
3.78927

>  <SCORE.INTRA.POLAR>  (15) 
0

>  <SCORE.INTRA.POLAR.0>  (15) 
0

>  <SCORE.INTRA.REPUL>  (15) 
0

>  <SCORE.INTRA.REPUL.0>  (15) 
0

>  <SCORE.INTRA.VDW>  (15) 
2.65801

>  <SCORE.INTRA.VDW.0>  (15) 
1.02728

>  <SCORE.INTRA.norm>  (15) 
0.17671

>  <SCORE.RESTR>  (15) 
0

>  <SCORE.RESTR.CAVITY>  (15) 
0

>  <SCORE.RESTR.norm>  (15) 
0

>  <SCORE.SYSTEM>  (15) 
-3.01697

>  <SCORE.SYSTEM.CONST>  (15) 
0

>  <SCORE.SYSTEM.DIHEDRAL>  (15) 
3.04357

>  <SCORE.SYSTEM.POLAR>  (15) 
-1.44495

>  <SCORE.SYSTEM.REPUL>  (15) 
0.0950916

>  <SCORE.SYSTEM.VDW>  (15) 
-0.101375

>  <SCORE.SYSTEM.norm>  (15) 
-0.137135

>  <SCORE.heavy>  (15) 
22

>  <SCORE.norm>  (15) 
-0.536917

$$$$
denovo_401
     RDKit          3D

 22 23  0  0  0  0  0  0  0  0999 V2000
  -17.4337   17.0001  -14.0515 C   0  0  0  0  0  0  0  0  0  0  0  0
  -16.3645   17.0502  -14.9867 O   0  0  0  0  0  0  0  0  0  0  0  0
  -15.0922   17.0343  -14.3353 C   0  0  0  0  0  0  0  0  0  0  0  0
  -14.7207   15.5930  -13.9233 C   0  0  2  0  0  0  0  0  0  0  0  0
  -14.9863   15.4050  -12.4336 C   0  0  0  0  0  0  0  0  0  0  0  0
  -16.2480   14.9685  -12.0019 C   0  0  0  0  0  0  0  0  0  0  0  0
  -16.5135   14.7923  -10.6428 C   0  0  0  0  0  0  0  0  0  0  0  0
  -15.5230   15.0509   -9.6984 C   0  0  0  0  0  0  0  0  0  0  0  0
  -14.2661   15.4862  -10.1118 C   0  0  0  0  0  0  0  0  0  0  0  0
  -13.9982   15.6634  -11.4704 C   0  0  0  0  0  0  0  0  0  0  0  0
  -13.2642   15.2182  -14.2983 C   0  0  2  0  0  0  0  0  0  0  0  0
  -12.9012   15.4539  -15.7681 C   0  0  0  0  0  0  0  0  0  0  0  0
  -11.7752   14.4678  -16.0936 C   0  0  0  0  0  0  0  0  0  0  0  0
  -11.6093   13.5698  -14.8647 C   0  0  2  0  0  0  0  0  0  0  0  0
  -11.2971   12.0890  -15.1417 C   0  0  0  0  0  0  0  0  0  0  0  0
   -9.7984   11.6308  -15.1391 C   0  0  0  0  0  0  0  0  0  0  0  0
   -9.2219   11.7499  -13.7136 C   0  0  0  0  0  0  0  0  0  0  0  0
   -9.8044   10.1289  -15.5220 C   0  0  0  0  0  0  0  0  0  0  0  0
   -8.9222   12.4360  -16.1499 C   0  0  1  0  0  0  0  0  0  0  0  0
   -7.4975   11.9145  -16.3403 C   0  0  0  0  0  0  0  0  0  0  0  0
   -9.5185   12.4476  -17.4480 O   0  0  0  0  0  0  0  0  0  0  0  0
  -12.9463   13.7287  -14.1289 C   0  0  0  0  0  0  0  0  0  0  0  0
  1  2  1  0
  2  3  1  0
  4  3  1  1
  4  5  1  0
  5  6  2  0
  6  7  1  0
  7  8  2  0
  8  9  1  0
  9 10  2  0
  4 11  1  0
 11 12  1  6
 12 13  1  0
 13 14  1  0
 14 15  1  6
 15 16  1  0
 16 17  1  0
 16 18  1  0
 16 19  1  0
 19 20  1  6
 19 21  1  0
 14 22  1  0
 10  5  1  0
 22 11  1  0
M  END
>  <CHROM.0>  (16) 
-60.36649346,60.78177431,65.52479750,57.45477753,-22.79543603,-178.00827297
-72.25422349,-34.20184085

>  <CHROM.1>  (16) 
79.73738817,-101.48181271,89.35674313,-53.00251844,94.82813719,66.92166394
-171.88847175,-59.61950879,-12.83686870,14.19299769,-14.11063622,2.90441602
-0.65170372,1.90252041

>  <Name>  (16) 
denovo_401

>  <RI>  (16) 
3.94589e+08

>  <Rbt.Current_Directory>  (16) 
/tmp/claude-0/-home-user-Rare-cancers/1af35c7f-7dc4-53ce-91d2-1631a2a10a85/scratchpad/smwork/cross/dock_8XTT-model6

>  <Rbt.Executable>  (16) 
rbdock - v25.07-alpha

>  <Rbt.Library>  (16) 
libRbt.so (25.07, Buildalpha)

>  <Rbt.Parameter_File>  (16) 
/tmp/claude-0/-home-user-Rare-cancers/1af35c7f-7dc4-53ce-91d2-1631a2a10a85/scratchpad/rdroot/share/rDock/data/scripts/dock.prm

>  <Rbt.Receptor>  (16) 
rec.prm

>  <SCORE>  (16) 
-11.4168

>  <SCORE.INTER>  (16) 
-14.7563

>  <SCORE.INTER.CONST>  (16) 
1

>  <SCORE.INTER.POLAR>  (16) 
-1.27351

>  <SCORE.INTER.REPUL>  (16) 
0

>  <SCORE.INTER.ROT>  (16) 
7

>  <SCORE.INTER.VDW>  (16) 
-22.8264

>  <SCORE.INTER.norm>  (16) 
-0.670741

>  <SCORE.INTRA>  (16) 
5.51241

>  <SCORE.INTRA.DIHEDRAL>  (16) 
7.48079

>  <SCORE.INTRA.DIHEDRAL.0>  (16) 
3.78927

>  <SCORE.INTRA.POLAR>  (16) 
0

>  <SCORE.INTRA.POLAR.0>  (16) 
0

>  <SCORE.INTRA.REPUL>  (16) 
0

>  <SCORE.INTRA.REPUL.0>  (16) 
0

>  <SCORE.INTRA.VDW>  (16) 
1.77202

>  <SCORE.INTRA.VDW.0>  (16) 
1.02728

>  <SCORE.INTRA.norm>  (16) 
0.250564

>  <SCORE.RESTR>  (16) 
0

>  <SCORE.RESTR.CAVITY>  (16) 
0

>  <SCORE.RESTR.norm>  (16) 
0

>  <SCORE.SYSTEM>  (16) 
-2.17289

>  <SCORE.SYSTEM.CONST>  (16) 
0

>  <SCORE.SYSTEM.DIHEDRAL>  (16) 
8.65374

>  <SCORE.SYSTEM.POLAR>  (16) 
-2.36667

>  <SCORE.SYSTEM.REPUL>  (16) 
0.372106

>  <SCORE.SYSTEM.VDW>  (16) 
-0.313616

>  <SCORE.SYSTEM.norm>  (16) 
-0.0987677

>  <SCORE.heavy>  (16) 
22

>  <SCORE.norm>  (16) 
-0.518945

$$$$
denovo_401
     RDKit          3D

 22 23  0  0  0  0  0  0  0  0999 V2000
  -18.1927   17.3079  -14.1800 C   0  0  0  0  0  0  0  0  0  0  0  0
  -17.1480   16.3939  -14.4859 O   0  0  0  0  0  0  0  0  0  0  0  0
  -15.9413   16.7201  -13.7925 C   0  0  0  0  0  0  0  0  0  0  0  0
  -15.2197   15.4316  -13.3405 C   0  0  2  0  0  0  0  0  0  0  0  0
  -15.2245   15.3530  -11.8177 C   0  0  0  0  0  0  0  0  0  0  0  0
  -16.4377   15.1796  -11.1343 C   0  0  0  0  0  0  0  0  0  0  0  0
  -16.4654   15.1077   -9.7405 C   0  0  0  0  0  0  0  0  0  0  0  0
  -15.2825   15.2092   -9.0122 C   0  0  0  0  0  0  0  0  0  0  0  0
  -14.0707   15.3829   -9.6767 C   0  0  0  0  0  0  0  0  0  0  0  0
  -14.0404   15.4554  -11.0706 C   0  0  0  0  0  0  0  0  0  0  0  0
  -13.7856   15.3134  -13.9166 C   0  0  2  0  0  0  0  0  0  0  0  0
  -13.6614   15.6701  -15.4015 C   0  0  0  0  0  0  0  0  0  0  0  0
  -12.4502   14.8937  -15.9276 C   0  0  0  0  0  0  0  0  0  0  0  0
  -11.9867   13.9801  -14.7899 C   0  0  2  0  0  0  0  0  0  0  0  0
  -11.4898   12.5828  -15.1994 C   0  0  0  0  0  0  0  0  0  0  0  0
   -9.9879   12.4189  -15.6157 C   0  0  0  0  0  0  0  0  0  0  0  0
   -9.7757   11.0328  -16.2579 C   0  0  0  0  0  0  0  0  0  0  0  0
   -9.7212   13.4894  -16.7044 C   0  0  0  0  0  0  0  0  0  0  0  0
   -9.0069   12.6199  -14.4177 C   0  0  1  0  0  0  0  0  0  0  0  0
   -9.2025   11.6594  -13.2442 C   0  0  0  0  0  0  0  0  0  0  0  0
   -7.6497   12.4657  -14.8363 O   0  0  0  0  0  0  0  0  0  0  0  0
  -13.2227   13.8886  -13.8853 C   0  0  0  0  0  0  0  0  0  0  0  0
  1  2  1  0
  2  3  1  0
  4  3  1  1
  4  5  1  0
  5  6  2  0
  6  7  1  0
  7  8  2  0
  8  9  1  0
  9 10  2  0
  4 11  1  0
 11 12  1  6
 12 13  1  0
 13 14  1  0
 14 15  1  6
 15 16  1  0
 16 17  1  0
 16 18  1  0
 16 19  1  0
 19 20  1  1
 19 21  1  0
 14 22  1  0
 10  5  1  0
 22 11  1  0
M  END
>  <CHROM.0>  (17) 
-175.88895539,-63.26559841,-59.48962949,-63.94463268,-25.63737438,-55.88952117
-171.68114437,-27.63186883

>  <CHROM.1>  (17) 
142.21449943,-113.63279128,66.71444073,-44.10622897,86.01556477,-168.38373132
59.35027564,62.22691652,-13.11397016,14.41079143,-13.65427585,2.79420891
-0.52026178,1.68620428

>  <Name>  (17) 
denovo_401

>  <RI>  (17) 
3.94589e+08

>  <Rbt.Current_Directory>  (17) 
/tmp/claude-0/-home-user-Rare-cancers/1af35c7f-7dc4-53ce-91d2-1631a2a10a85/scratchpad/smwork/cross/dock_8XTT-model6

>  <Rbt.Executable>  (17) 
rbdock - v25.07-alpha

>  <Rbt.Library>  (17) 
libRbt.so (25.07, Buildalpha)

>  <Rbt.Parameter_File>  (17) 
/tmp/claude-0/-home-user-Rare-cancers/1af35c7f-7dc4-53ce-91d2-1631a2a10a85/scratchpad/rdroot/share/rDock/data/scripts/dock.prm

>  <Rbt.Receptor>  (17) 
rec.prm

>  <SCORE>  (17) 
-11.2199

>  <SCORE.INTER>  (17) 
-14.5991

>  <SCORE.INTER.CONST>  (17) 
1

>  <SCORE.INTER.POLAR>  (17) 
-0.824621

>  <SCORE.INTER.REPUL>  (17) 
0

>  <SCORE.INTER.ROT>  (17) 
7

>  <SCORE.INTER.VDW>  (17) 
-24.1954

>  <SCORE.INTER.norm>  (17) 
-0.663597

>  <SCORE.INTRA>  (17) 
7.43172

>  <SCORE.INTRA.DIHEDRAL>  (17) 
11.2172

>  <SCORE.INTRA.DIHEDRAL.0>  (17) 
3.78927

>  <SCORE.INTRA.POLAR>  (17) 
0

>  <SCORE.INTRA.POLAR.0>  (17) 
0

>  <SCORE.INTRA.REPUL>  (17) 
0

>  <SCORE.INTRA.REPUL.0>  (17) 
0

>  <SCORE.INTRA.VDW>  (17) 
1.82312

>  <SCORE.INTRA.VDW.0>  (17) 
1.02728

>  <SCORE.INTRA.norm>  (17) 
0.337805

>  <SCORE.RESTR>  (17) 
0

>  <SCORE.RESTR.CAVITY>  (17) 
0

>  <SCORE.RESTR.norm>  (17) 
0

>  <SCORE.SYSTEM>  (17) 
-4.05247

>  <SCORE.SYSTEM.CONST>  (17) 
0

>  <SCORE.SYSTEM.DIHEDRAL>  (17) 
9.06408

>  <SCORE.SYSTEM.POLAR>  (17) 
-3.20993

>  <SCORE.SYSTEM.REPUL>  (17) 
0.0182337

>  <SCORE.SYSTEM.VDW>  (17) 
2.23808

>  <SCORE.SYSTEM.norm>  (17) 
-0.184203

>  <SCORE.heavy>  (17) 
22

>  <SCORE.norm>  (17) 
-0.509995

$$$$
denovo_401
     RDKit          3D

 22 23  0  0  0  0  0  0  0  0999 V2000
  -17.6212   16.7883  -14.2666 C   0  0  0  0  0  0  0  0  0  0  0  0
  -16.5273   17.4145  -13.6096 O   0  0  0  0  0  0  0  0  0  0  0  0
  -15.2819   17.0903  -14.2319 C   0  0  0  0  0  0  0  0  0  0  0  0
  -14.8482   15.6592  -13.8460 C   0  0  2  0  0  0  0  0  0  0  0  0
  -15.0755   15.4434  -12.3537 C   0  0  0  0  0  0  0  0  0  0  0  0
  -14.0220   15.6573  -11.4519 C   0  0  0  0  0  0  0  0  0  0  0  0
  -14.2073   15.4632  -10.0820 C   0  0  0  0  0  0  0  0  0  0  0  0
  -15.4463   15.0522   -9.5962 C   0  0  0  0  0  0  0  0  0  0  0  0
  -16.5012   14.8346  -10.4795 C   0  0  0  0  0  0  0  0  0  0  0  0
  -16.3181   15.0278  -11.8499 C   0  0  0  0  0  0  0  0  0  0  0  0
  -13.3867   15.3443  -14.2552 C   0  0  2  0  0  0  0  0  0  0  0  0
  -13.0658   15.6027  -15.7310 C   0  0  0  0  0  0  0  0  0  0  0  0
  -11.9094   14.6636  -16.0876 C   0  0  0  0  0  0  0  0  0  0  0  0
  -11.6813   13.7657  -14.8687 C   0  0  2  0  0  0  0  0  0  0  0  0
  -11.3174   12.3000  -15.1624 C   0  0  0  0  0  0  0  0  0  0  0  0
   -9.8329   11.9612  -15.5334 C   0  0  0  0  0  0  0  0  0  0  0  0
   -9.7257   10.4778  -15.9418 C   0  0  0  0  0  0  0  0  0  0  0  0
   -9.4911   12.8194  -16.7780 C   0  0  0  0  0  0  0  0  0  0  0  0
   -8.8362   12.2803  -14.3747 C   0  0  1  0  0  0  0  0  0  0  0  0
   -9.0608   11.4928  -13.0834 C   0  0  0  0  0  0  0  0  0  0  0  0
   -7.4892   12.0179  -14.7716 O   0  0  0  0  0  0  0  0  0  0  0  0
  -13.0069   13.8675  -14.1028 C   0  0  0  0  0  0  0  0  0  0  0  0
  1  2  1  0
  2  3  1  0
  4  3  1  1
  4  5  1  0
  5  6  2  0
  6  7  1  0
  7  8  2  0
  8  9  1  0
  9 10  2  0
  4 11  1  0
 11 12  1  6
 12 13  1  0
 13 14  1  0
 14 15  1  6
 15 16  1  0
 16 17  1  0
 16 18  1  0
 16 19  1  0
 19 20  1  1
 19 21  1  0
 14 22  1  0
 10  5  1  0
 22 11  1  0
M  END
>  <CHROM.0>  (18) 
-59.49880992,-60.09736754,-60.34044822,55.88640511,31.22258870,-56.89280350
-178.76948134,-31.10646253

>  <CHROM.1>  (18) 
-76.44114984,-43.70263717,-94.54344133,-53.37680744,80.47785730,-173.58753276
61.95507236,65.42321612,-12.86577098,14.29422194,-13.81657856,2.92288018
-0.60523288,1.81937581

>  <Name>  (18) 
denovo_401

>  <RI>  (18) 
3.94589e+08

>  <Rbt.Current_Directory>  (18) 
/tmp/claude-0/-home-user-Rare-cancers/1af35c7f-7dc4-53ce-91d2-1631a2a10a85/scratchpad/smwork/cross/dock_8XTT-model6

>  <Rbt.Executable>  (18) 
rbdock - v25.07-alpha

>  <Rbt.Library>  (18) 
libRbt.so (25.07, Buildalpha)

>  <Rbt.Parameter_File>  (18) 
/tmp/claude-0/-home-user-Rare-cancers/1af35c7f-7dc4-53ce-91d2-1631a2a10a85/scratchpad/rdroot/share/rDock/data/scripts/dock.prm

>  <Rbt.Receptor>  (18) 
rec.prm

>  <SCORE>  (18) 
-8.7338

>  <SCORE.INTER>  (18) 
-11.645

>  <SCORE.INTER.CONST>  (18) 
1

>  <SCORE.INTER.POLAR>  (18) 
0

>  <SCORE.INTER.REPUL>  (18) 
0

>  <SCORE.INTER.ROT>  (18) 
7

>  <SCORE.INTER.VDW>  (18) 
-24.045

>  <SCORE.INTER.norm>  (18) 
-0.529318

>  <SCORE.INTRA>  (18) 
3.09996

>  <SCORE.INTRA.DIHEDRAL>  (18) 
1.44249

>  <SCORE.INTRA.DIHEDRAL.0>  (18) 
3.78927

>  <SCORE.INTRA.POLAR>  (18) 
0

>  <SCORE.INTRA.POLAR.0>  (18) 
0

>  <SCORE.INTRA.REPUL>  (18) 
0

>  <SCORE.INTRA.REPUL.0>  (18) 
0

>  <SCORE.INTRA.VDW>  (18) 
2.37871

>  <SCORE.INTRA.VDW.0>  (18) 
1.02728

>  <SCORE.INTRA.norm>  (18) 
0.140907

>  <SCORE.RESTR>  (18) 
0

>  <SCORE.RESTR.CAVITY>  (18) 
0

>  <SCORE.RESTR.norm>  (18) 
0

>  <SCORE.SYSTEM>  (18) 
-0.188729

>  <SCORE.SYSTEM.CONST>  (18) 
0

>  <SCORE.SYSTEM.DIHEDRAL>  (18) 
6.86928

>  <SCORE.SYSTEM.POLAR>  (18) 
-2.79475

>  <SCORE.SYSTEM.REPUL>  (18) 
0.0182337

>  <SCORE.SYSTEM.VDW>  (18) 
5.78761

>  <SCORE.SYSTEM.norm>  (18) 
-0.0085786

>  <SCORE.heavy>  (18) 
22

>  <SCORE.norm>  (18) 
-0.396989

$$$$
denovo_401
     RDKit          3D

 22 23  0  0  0  0  0  0  0  0999 V2000
  -17.6438   16.9295  -14.0275 C   0  0  0  0  0  0  0  0  0  0  0  0
  -16.4996   17.0790  -14.8575 O   0  0  0  0  0  0  0  0  0  0  0  0
  -15.2919   17.1004  -14.0930 C   0  0  0  0  0  0  0  0  0  0  0  0
  -14.8890   15.6650  -13.6901 C   0  0  2  0  0  0  0  0  0  0  0  0
  -15.0839   15.4841  -12.1887 C   0  0  0  0  0  0  0  0  0  0  0  0
  -16.3662   15.2279  -11.6799 C   0  0  0  0  0  0  0  0  0  0  0  0
  -16.5676   15.0616  -10.3086 C   0  0  0  0  0  0  0  0  0  0  0  0
  -15.4915   15.1502   -9.4288 C   0  0  0  0  0  0  0  0  0  0  0  0
  -14.2129   15.4054   -9.9190 C   0  0  0  0  0  0  0  0  0  0  0  0
  -14.0090   15.5723  -11.2900 C   0  0  0  0  0  0  0  0  0  0  0  0
  -13.4480   15.3005  -14.1298 C   0  0  2  0  0  0  0  0  0  0  0  0
  -13.1523   15.5398  -15.6140 C   0  0  0  0  0  0  0  0  0  0  0  0
  -12.0350   14.5617  -15.9902 C   0  0  0  0  0  0  0  0  0  0  0  0
  -11.8087   13.6639  -14.7708 C   0  0  2  0  0  0  0  0  0  0  0  0
  -11.4990   12.1856  -15.0630 C   0  0  0  0  0  0  0  0  0  0  0  0
  -10.0055   11.7683  -15.2898 C   0  0  0  0  0  0  0  0  0  0  0  0
   -9.1259   12.3580  -14.1686 C   0  0  0  0  0  0  0  0  0  0  0  0
   -9.9630   10.2243  -15.1604 C   0  0  0  0  0  0  0  0  0  0  0  0
   -9.4665   12.2018  -16.6896 C   0  0  1  0  0  0  0  0  0  0  0  0
   -9.2733   13.7067  -16.8785 C   0  0  0  0  0  0  0  0  0  0  0  0
   -8.1985   11.6010  -16.9582 O   0  0  0  0  0  0  0  0  0  0  0  0
  -13.1128   13.8131  -13.9762 C   0  0  0  0  0  0  0  0  0  0  0  0
  1  2  1  0
  2  3  1  0
  4  3  1  1
  4  5  1  0
  5  6  2  0
  6  7  1  0
  7  8  2  0
  8  9  1  0
  9 10  2  0
  4 11  1  0
 11 12  1  6
 12 13  1  0
 13 14  1  0
 14 15  1  6
 15 16  1  0
 16 17  1  0
 16 18  1  0
 16 19  1  0
 19 20  1  1
 19 21  1  0
 14 22  1  0
 10  5  1  0
 22 11  1  0
M  END
>  <CHROM.0>  (19) 
-61.18474194,-62.57436176,-59.73710801,-69.36115268,33.35581327,177.52325881
-72.42502605,-33.35115731

>  <CHROM.1>  (19) 
78.89593483,-109.92432496,80.18884465,-52.57558538,87.94712246,48.35623492
69.78313627,-58.57023253,-12.98185601,14.31922851,-14.01213067,2.85775340
-0.65361064,1.89743078

>  <Name>  (19) 
denovo_401

>  <RI>  (19) 
3.94589e+08

>  <Rbt.Current_Directory>  (19) 
/tmp/claude-0/-home-user-Rare-cancers/1af35c7f-7dc4-53ce-91d2-1631a2a10a85/scratchpad/smwork/cross/dock_8XTT-model6

>  <Rbt.Executable>  (19) 
rbdock - v25.07-alpha

>  <Rbt.Library>  (19) 
libRbt.so (25.07, Buildalpha)

>  <Rbt.Parameter_File>  (19) 
/tmp/claude-0/-home-user-Rare-cancers/1af35c7f-7dc4-53ce-91d2-1631a2a10a85/scratchpad/rdroot/share/rDock/data/scripts/dock.prm

>  <Rbt.Receptor>  (19) 
rec.prm

>  <SCORE>  (19) 
-7.2830

>  <SCORE.INTER>  (19) 
-15.7037

>  <SCORE.INTER.CONST>  (19) 
1

>  <SCORE.INTER.POLAR>  (19) 
-0.824621

>  <SCORE.INTER.REPUL>  (19) 
0

>  <SCORE.INTER.ROT>  (19) 
7

>  <SCORE.INTER.VDW>  (19) 
-25.3

>  <SCORE.INTER.norm>  (19) 
-0.713805

>  <SCORE.INTRA>  (19) 
7.48933

>  <SCORE.INTRA.DIHEDRAL>  (19) 
7.89206

>  <SCORE.INTRA.DIHEDRAL.0>  (19) 
3.78927

>  <SCORE.INTRA.POLAR>  (19) 
0

>  <SCORE.INTRA.POLAR.0>  (19) 
0

>  <SCORE.INTRA.REPUL>  (19) 
0

>  <SCORE.INTRA.REPUL.0>  (19) 
0

>  <SCORE.INTRA.VDW>  (19) 
3.5433

>  <SCORE.INTRA.VDW.0>  (19) 
1.02728

>  <SCORE.INTRA.norm>  (19) 
0.340424

>  <SCORE.RESTR>  (19) 
0

>  <SCORE.RESTR.CAVITY>  (19) 
0

>  <SCORE.RESTR.norm>  (19) 
0

>  <SCORE.SYSTEM>  (19) 
0.931419

>  <SCORE.SYSTEM.CONST>  (19) 
0

>  <SCORE.SYSTEM.DIHEDRAL>  (19) 
6.97225

>  <SCORE.SYSTEM.POLAR>  (19) 
-2.81855

>  <SCORE.SYSTEM.REPUL>  (19) 
0.306779

>  <SCORE.SYSTEM.VDW>  (19) 
5.49449

>  <SCORE.SYSTEM.norm>  (19) 
0.0423372

>  <SCORE.heavy>  (19) 
22

>  <SCORE.norm>  (19) 
-0.331044

$$$$
denovo_401
     RDKit          3D

 22 23  0  0  0  0  0  0  0  0999 V2000
  -17.7283   16.8210  -14.2794 C   0  0  0  0  0  0  0  0  0  0  0  0
  -16.6005   17.3152  -13.5692 O   0  0  0  0  0  0  0  0  0  0  0  0
  -15.3794   17.0379  -14.2586 C   0  0  0  0  0  0  0  0  0  0  0  0
  -14.8633   15.6307  -13.8866 C   0  0  2  0  0  0  0  0  0  0  0  0
  -15.0516   15.3984  -12.3914 C   0  0  0  0  0  0  0  0  0  0  0  0
  -16.2834   14.9293  -11.9103 C   0  0  0  0  0  0  0  0  0  0  0  0
  -16.4783   14.7122  -10.5452 C   0  0  0  0  0  0  0  0  0  0  0  0
  -15.4462   14.9620   -9.6439 C   0  0  0  0  0  0  0  0  0  0  0  0
  -14.2182   15.4292  -10.1065 C   0  0  0  0  0  0  0  0  0  0  0  0
  -14.0210   15.6473  -11.4712 C   0  0  0  0  0  0  0  0  0  0  0  0
  -13.3949   15.3953  -14.3234 C   0  0  2  0  0  0  0  0  0  0  0  0
  -13.1145   15.6779  -15.8030 C   0  0  0  0  0  0  0  0  0  0  0  0
  -11.9169   14.8028  -16.1858 C   0  0  0  0  0  0  0  0  0  0  0  0
  -11.6201   13.9119  -14.9765 C   0  0  2  0  0  0  0  0  0  0  0  0
  -11.1851   12.4689  -15.2855 C   0  0  0  0  0  0  0  0  0  0  0  0
   -9.6680   12.1020  -15.1438 C   0  0  0  0  0  0  0  0  0  0  0  0
   -8.8182   13.3888  -15.1711 C   0  0  0  0  0  0  0  0  0  0  0  0
   -9.5071   11.4595  -13.7425 C   0  0  0  0  0  0  0  0  0  0  0  0
   -9.1851   11.1071  -16.2460 C   0  0  1  0  0  0  0  0  0  0  0  0
   -9.1198   11.6809  -17.6617 C   0  0  0  0  0  0  0  0  0  0  0  0
   -7.8751   10.6170  -15.9545 O   0  0  0  0  0  0  0  0  0  0  0  0
  -12.9353   13.9398  -14.1867 C   0  0  0  0  0  0  0  0  0  0  0  0
  1  2  1  0
  2  3  1  0
  4  3  1  1
  4  5  1  0
  5  6  2  0
  6  7  1  0
  7  8  2  0
  8  9  1  0
  9 10  2  0
  4 11  1  0
 11 12  1  6
 12 13  1  0
 13 14  1  0
 14 15  1  6
 15 16  1  0
 16 17  1  0
 16 18  1  0
 16 19  1  0
 19 20  1  6
 19 21  1  0
 14 22  1  0
 10  5  1  0
 22 11  1  0
M  END
>  <CHROM.0>  (20) 
-63.30470125,58.48176618,-62.05906338,171.87743004,-61.26981784,-57.15828046
-176.27149809,-178.46728793

>  <CHROM.1>  (20) 
-86.11422931,-41.30489895,84.98539636,-53.25952211,103.57640518,-19.09256548
69.30413864,175.88280826,-12.85686572,14.25821312,-14.02247927,2.88739564
-0.63910196,1.86557000

>  <Name>  (20) 
denovo_401

>  <RI>  (20) 
3.94589e+08

>  <Rbt.Current_Directory>  (20) 
/tmp/claude-0/-home-user-Rare-cancers/1af35c7f-7dc4-53ce-91d2-1631a2a10a85/scratchpad/smwork/cross/dock_8XTT-model6

>  <Rbt.Executable>  (20) 
rbdock - v25.07-alpha

>  <Rbt.Library>  (20) 
libRbt.so (25.07, Buildalpha)

>  <Rbt.Parameter_File>  (20) 
/tmp/claude-0/-home-user-Rare-cancers/1af35c7f-7dc4-53ce-91d2-1631a2a10a85/scratchpad/rdroot/share/rDock/data/scripts/dock.prm

>  <Rbt.Receptor>  (20) 
rec.prm

>  <SCORE>  (20) 
-4.3768

>  <SCORE.INTER>  (20) 
-9.96737

>  <SCORE.INTER.CONST>  (20) 
1

>  <SCORE.INTER.POLAR>  (20) 
0

>  <SCORE.INTER.REPUL>  (20) 
0

>  <SCORE.INTER.ROT>  (20) 
7

>  <SCORE.INTER.VDW>  (20) 
-22.3674

>  <SCORE.INTER.norm>  (20) 
-0.453062

>  <SCORE.INTRA>  (20) 
9.27679

>  <SCORE.INTRA.DIHEDRAL>  (20) 
11.9669

>  <SCORE.INTRA.DIHEDRAL.0>  (20) 
3.78927

>  <SCORE.INTRA.POLAR>  (20) 
0

>  <SCORE.INTRA.POLAR.0>  (20) 
0

>  <SCORE.INTRA.REPUL>  (20) 
0

>  <SCORE.INTRA.REPUL.0>  (20) 
0

>  <SCORE.INTRA.VDW>  (20) 
3.29336

>  <SCORE.INTRA.VDW.0>  (20) 
1.02728

>  <SCORE.INTRA.norm>  (20) 
0.421672

>  <SCORE.RESTR>  (20) 
0

>  <SCORE.RESTR.CAVITY>  (20) 
0

>  <SCORE.RESTR.norm>  (20) 
0

>  <SCORE.SYSTEM>  (20) 
-3.6862

>  <SCORE.SYSTEM.CONST>  (20) 
0

>  <SCORE.SYSTEM.DIHEDRAL>  (20) 
0.385916

>  <SCORE.SYSTEM.POLAR>  (20) 
-1.10454

>  <SCORE.SYSTEM.REPUL>  (20) 
0.0643145

>  <SCORE.SYSTEM.VDW>  (20) 
-0.445311

>  <SCORE.SYSTEM.norm>  (20) 
-0.167555

>  <SCORE.heavy>  (20) 
22

>  <SCORE.norm>  (20) 
-0.198945

$$$$
denovo_401
     RDKit          3D

 22 23  0  0  0  0  0  0  0  0999 V2000
  -18.4769   17.1431  -14.1422 C   0  0  0  0  0  0  0  0  0  0  0  0
  -17.5250   16.2118  -13.6451 O   0  0  0  0  0  0  0  0  0  0  0  0
  -16.1881   16.5977  -13.9724 C   0  0  0  0  0  0  0  0  0  0  0  0
  -15.2025   15.4627  -13.6185 C   0  0  2  0  0  0  0  0  0  0  0  0
  -15.1448   15.2924  -12.1043 C   0  0  0  0  0  0  0  0  0  0  0  0
  -16.3033   14.9293  -11.4009 C   0  0  0  0  0  0  0  0  0  0  0  0
  -16.2736   14.7705  -10.0144 C   0  0  0  0  0  0  0  0  0  0  0  0
  -15.0873   14.9733   -9.3134 C   0  0  0  0  0  0  0  0  0  0  0  0
  -13.9294   15.3353   -9.9979 C   0  0  0  0  0  0  0  0  0  0  0  0
  -13.9567   15.4950  -11.3845 C   0  0  0  0  0  0  0  0  0  0  0  0
  -13.7930   15.6810  -14.2255 C   0  0  2  0  0  0  0  0  0  0  0  0
  -13.7734   16.5049  -15.5172 C   0  0  0  0  0  0  0  0  0  0  0  0
  -12.5237   16.0646  -16.2859 C   0  0  0  0  0  0  0  0  0  0  0  0
  -11.9250   14.8867  -15.5124 C   0  0  2  0  0  0  0  0  0  0  0  0
  -11.3240   13.7520  -16.3598 C   0  0  0  0  0  0  0  0  0  0  0  0
  -10.2991   12.7791  -15.6822 C   0  0  0  0  0  0  0  0  0  0  0  0
   -9.2690   13.5926  -14.8722 C   0  0  0  0  0  0  0  0  0  0  0  0
  -11.1139   11.9200  -14.6820 C   0  0  0  0  0  0  0  0  0  0  0  0
   -9.5751   11.8562  -16.7127 C   0  0  1  0  0  0  0  0  0  0  0  0
   -8.8639   12.5828  -17.8547 C   0  0  0  0  0  0  0  0  0  0  0  0
   -8.5818   11.0540  -16.0717 O   0  0  0  0  0  0  0  0  0  0  0  0
  -13.1025   14.3858  -14.6658 C   0  0  0  0  0  0  0  0  0  0  0  0
  1  2  1  0
  2  3  1  0
  4  3  1  1
  4  5  1  0
  5  6  2  0
  6  7  1  0
  7  8  2  0
  8  9  1  0
  9 10  2  0
  4 11  1  0
 11 12  1  6
 12 13  1  0
 13 14  1  0
 14 15  1  6
 15 16  1  0
 16 17  1  0
 16 18  1  0
 16 19  1  0
 19 20  1  6
 19 21  1  0
 14 22  1  0
 10  5  1  0
 22 11  1  0
M  END
>  <CHROM.0>  (21) 
-61.54362113,57.12659011,68.44211187,54.86907058,-58.98601298,59.27157176
-176.15084733,-30.07819389

>  <CHROM.1>  (21) 
-171.04395445,-67.55590726,61.76551777,-27.69845250,160.00902177,-45.83705940
55.02219511,175.31177951,-13.23152156,14.56739755,-14.08736094,2.75178081
-0.57318000,1.82378655

>  <Name>  (21) 
denovo_401

>  <RI>  (21) 
3.94589e+08

>  <Rbt.Current_Directory>  (21) 
/tmp/claude-0/-home-user-Rare-cancers/1af35c7f-7dc4-53ce-91d2-1631a2a10a85/scratchpad/smwork/cross/dock_8XTT-model6

>  <Rbt.Executable>  (21) 
rbdock - v25.07-alpha

>  <Rbt.Library>  (21) 
libRbt.so (25.07, Buildalpha)

>  <Rbt.Parameter_File>  (21) 
/tmp/claude-0/-home-user-Rare-cancers/1af35c7f-7dc4-53ce-91d2-1631a2a10a85/scratchpad/rdroot/share/rDock/data/scripts/dock.prm

>  <Rbt.Receptor>  (21) 
rec.prm

>  <SCORE>  (21) 
-3.8505

>  <SCORE.INTER>  (21) 
-7.5147

>  <SCORE.INTER.CONST>  (21) 
1

>  <SCORE.INTER.POLAR>  (21) 
0

>  <SCORE.INTER.REPUL>  (21) 
0

>  <SCORE.INTER.ROT>  (21) 
7

>  <SCORE.INTER.VDW>  (21) 
-19.9147

>  <SCORE.INTER.norm>  (21) 
-0.341577

>  <SCORE.INTRA>  (21) 
5.50833

>  <SCORE.INTRA.DIHEDRAL>  (21) 
3.67464

>  <SCORE.INTRA.DIHEDRAL.0>  (21) 
3.78927

>  <SCORE.INTRA.POLAR>  (21) 
0

>  <SCORE.INTRA.POLAR.0>  (21) 
0

>  <SCORE.INTRA.REPUL>  (21) 
0

>  <SCORE.INTRA.REPUL.0>  (21) 
0

>  <SCORE.INTRA.VDW>  (21) 
3.67101

>  <SCORE.INTRA.VDW.0>  (21) 
1.02728

>  <SCORE.INTRA.norm>  (21) 
0.250379

>  <SCORE.RESTR>  (21) 
0

>  <SCORE.RESTR.CAVITY>  (21) 
0

>  <SCORE.RESTR.norm>  (21) 
0

>  <SCORE.SYSTEM>  (21) 
-1.84414

>  <SCORE.SYSTEM.CONST>  (21) 
0

>  <SCORE.SYSTEM.DIHEDRAL>  (21) 
4.13896

>  <SCORE.SYSTEM.POLAR>  (21) 
-1.36108

>  <SCORE.SYSTEM.REPUL>  (21) 
0.070574

>  <SCORE.SYSTEM.VDW>  (21) 
0.361176

>  <SCORE.SYSTEM.norm>  (21) 
-0.0838246

>  <SCORE.heavy>  (21) 
22

>  <SCORE.norm>  (21) 
-0.175023

$$$$
denovo_401
     RDKit          3D

 22 23  0  0  0  0  0  0  0  0999 V2000
  -17.7811   16.8943  -14.0155 C   0  0  0  0  0  0  0  0  0  0  0  0
  -16.7106   16.9638  -14.9481 O   0  0  0  0  0  0  0  0  0  0  0  0
  -15.4447   17.0657  -14.2920 C   0  0  0  0  0  0  0  0  0  0  0  0
  -14.9193   15.6612  -13.9229 C   0  0  2  0  0  0  0  0  0  0  0  0
  -15.1183   15.4192  -12.4307 C   0  0  0  0  0  0  0  0  0  0  0  0
  -14.0609   15.6597  -11.5403 C   0  0  0  0  0  0  0  0  0  0  0  0
  -14.2203   15.4423  -10.1706 C   0  0  0  0  0  0  0  0  0  0  0  0
  -15.4371   14.9813   -9.6737 C   0  0  0  0  0  0  0  0  0  0  0  0
  -16.4955   14.7368  -10.5455 C   0  0  0  0  0  0  0  0  0  0  0  0
  -16.3383   14.9531  -11.9157 C   0  0  0  0  0  0  0  0  0  0  0  0
  -13.4452   15.4409  -14.3484 C   0  0  2  0  0  0  0  0  0  0  0  0
  -13.1608   15.7057  -15.8305 C   0  0  0  0  0  0  0  0  0  0  0  0
  -11.9484   14.8428  -16.1937 C   0  0  0  0  0  0  0  0  0  0  0  0
  -11.6452   13.9744  -14.9698 C   0  0  2  0  0  0  0  0  0  0  0  0
  -11.1873   12.5336  -15.2549 C   0  0  0  0  0  0  0  0  0  0  0  0
   -9.6560   12.2096  -15.1764 C   0  0  0  0  0  0  0  0  0  0  0  0
   -8.8576   13.5168  -14.9962 C   0  0  0  0  0  0  0  0  0  0  0  0
   -9.4592   11.3561  -13.8976 C   0  0  0  0  0  0  0  0  0  0  0  0
   -9.1429   11.4259  -16.4255 C   0  0  1  0  0  0  0  0  0  0  0  0
   -9.7577   10.0404  -16.6263 C   0  0  0  0  0  0  0  0  0  0  0  0
   -9.4007   12.1537  -17.6276 O   0  0  0  0  0  0  0  0  0  0  0  0
  -12.9651   13.9946  -14.1876 C   0  0  0  0  0  0  0  0  0  0  0  0
  1  2  1  0
  2  3  1  0
  4  3  1  1
  4  5  1  0
  5  6  2  0
  6  7  1  0
  7  8  2  0
  8  9  1  0
  9 10  2  0
  4 11  1  0
 11 12  1  6
 12 13  1  0
 13 14  1  0
 14 15  1  6
 15 16  1  0
 16 17  1  0
 16 18  1  0
 16 19  1  0
 19 20  1  6
 19 21  1  0
 14 22  1  0
 10  5  1  0
 22 11  1  0
M  END
>  <CHROM.0>  (22) 
21.11620173,59.32659103,63.35181856,175.10821057,-175.68410870,-57.27041520
59.73714474,-173.97452823

>  <CHROM.1>  (22) 
85.20557987,-103.51975407,-96.07933325,-54.47857696,100.27319847,-7.66627915
-63.15918598,60.48225494,-12.99928404,14.29291866,-14.14271521,2.84818676
-0.64558975,1.83592269

>  <Name>  (22) 
denovo_401

>  <RI>  (22) 
3.94589e+08

>  <Rbt.Current_Directory>  (22) 
/tmp/claude-0/-home-user-Rare-cancers/1af35c7f-7dc4-53ce-91d2-1631a2a10a85/scratchpad/smwork/cross/dock_8XTT-model6

>  <Rbt.Executable>  (22) 
rbdock - v25.07-alpha

>  <Rbt.Library>  (22) 
libRbt.so (25.07, Buildalpha)

>  <Rbt.Parameter_File>  (22) 
/tmp/claude-0/-home-user-Rare-cancers/1af35c7f-7dc4-53ce-91d2-1631a2a10a85/scratchpad/rdroot/share/rDock/data/scripts/dock.prm

>  <Rbt.Receptor>  (22) 
rec.prm

>  <SCORE>  (22) 
-3.4202

>  <SCORE.INTER>  (22) 
-14.7789

>  <SCORE.INTER.CONST>  (22) 
1

>  <SCORE.INTER.POLAR>  (22) 
-1.25588

>  <SCORE.INTER.REPUL>  (22) 
0

>  <SCORE.INTER.ROT>  (22) 
7

>  <SCORE.INTER.VDW>  (22) 
-22.9089

>  <SCORE.INTER.norm>  (22) 
-0.671767

>  <SCORE.INTRA>  (22) 
10.5515

>  <SCORE.INTRA.DIHEDRAL>  (22) 
15.5894

>  <SCORE.INTRA.DIHEDRAL.0>  (22) 
3.78927

>  <SCORE.INTRA.POLAR>  (22) 
0

>  <SCORE.INTRA.POLAR.0>  (22) 
0

>  <SCORE.INTRA.REPUL>  (22) 
0

>  <SCORE.INTRA.REPUL.0>  (22) 
0

>  <SCORE.INTRA.VDW>  (22) 
2.75682

>  <SCORE.INTRA.VDW.0>  (22) 
1.02728

>  <SCORE.INTRA.norm>  (22) 
0.479615

>  <SCORE.RESTR>  (22) 
0

>  <SCORE.RESTR.CAVITY>  (22) 
0

>  <SCORE.RESTR.norm>  (22) 
0

>  <SCORE.SYSTEM>  (22) 
0.807153

>  <SCORE.SYSTEM.CONST>  (22) 
0

>  <SCORE.SYSTEM.DIHEDRAL>  (22) 
5.6399

>  <SCORE.SYSTEM.POLAR>  (22) 
-0.812275

>  <SCORE.SYSTEM.REPUL>  (22) 
0.056991

>  <SCORE.SYSTEM.VDW>  (22) 
0.463982

>  <SCORE.SYSTEM.norm>  (22) 
0.0366888

>  <SCORE.heavy>  (22) 
22

>  <SCORE.norm>  (22) 
-0.155463

$$$$
denovo_401
     RDKit          3D

 22 23  0  0  0  0  0  0  0  0999 V2000
  -13.1154   14.3447  -14.7290 C   0  0  0  0  0  0  0  0  0  0  0  0
  -12.3917   13.1846  -14.3407 O   0  0  0  0  0  0  0  0  0  0  0  0
  -11.1587   13.0679  -15.0544 C   0  0  0  0  0  0  0  0  0  0  0  0
  -10.7489   11.5837  -15.1741 C   0  0  2  0  0  0  0  0  0  0  0  0
  -10.1930   11.0999  -13.8392 C   0  0  0  0  0  0  0  0  0  0  0  0
  -10.7138    9.9382  -13.2493 C   0  0  0  0  0  0  0  0  0  0  0  0
  -10.2215    9.4789  -12.0264 C   0  0  0  0  0  0  0  0  0  0  0  0
   -9.2042   10.1745  -11.3774 C   0  0  0  0  0  0  0  0  0  0  0  0
   -8.6783   11.3302  -11.9502 C   0  0  0  0  0  0  0  0  0  0  0  0
   -9.1692   11.7916  -13.1729 C   0  0  0  0  0  0  0  0  0  0  0  0
   -9.7556   11.3273  -16.3361 C   0  0  2  0  0  0  0  0  0  0  0  0
   -9.7419    9.8875  -16.8600 C   0  0  0  0  0  0  0  0  0  0  0  0
   -8.3477    9.6618  -17.4530 C   0  0  0  0  0  0  0  0  0  0  0  0
   -7.5240   10.9101  -17.1253 C   0  0  2  0  0  0  0  0  0  0  0  0
   -6.0461   10.6752  -16.7684 C   0  0  0  0  0  0  0  0  0  0  0  0
   -5.1078   10.0487  -17.8562 C   0  0  0  0  0  0  0  0  0  0  0  0
   -5.5960   10.4582  -19.2607 C   0  0  0  0  0  0  0  0  0  0  0  0
   -3.7100   10.6822  -17.6390 C   0  0  0  0  0  0  0  0  0  0  0  0
   -5.0127    8.4943  -17.7445 C   0  0  1  0  0  0  0  0  0  0  0  0
   -6.2831    7.7325  -18.1236 C   0  0  0  0  0  0  0  0  0  0  0  0
   -3.9766    7.9833  -18.5850 O   0  0  0  0  0  0  0  0  0  0  0  0
   -8.2872   11.5380  -15.9516 C   0  0  0  0  0  0  0  0  0  0  0  0
  1  2  1  0
  2  3  1  0
  4  3  1  1
  4  5  1  0
  5  6  2  0
  6  7  1  0
  7  8  2  0
  8  9  1  0
  9 10  2  0
  4 11  1  0
 11 12  1  1
 12 13  1  0
 13 14  1  0
 14 15  1  1
 15 16  1  0
 16 17  1  0
 16 18  1  0
 16 19  1  0
 19 20  1  6
 19 21  1  0
 14 22  1  0
 10  5  1  0
 22 11  1  0
M  END
>  <CHROM.0>  (23) 
-178.07904639,-60.61312242,-61.98484649,49.98916163,32.14733088,59.10983334
61.57237848,-179.60981706

>  <CHROM.1>  (23) 
-152.09393024,-76.10890437,127.56563932,-156.83730821,62.66645651,30.25443186
69.60415139,73.53268779,-8.36393990,10.69718788,-15.74659412,2.72983132,-0.59905232
1.92310379

>  <Name>  (23) 
denovo_401

>  <RI>  (23) 
3.94589e+08

>  <Rbt.Current_Directory>  (23) 
/tmp/claude-0/-home-user-Rare-cancers/1af35c7f-7dc4-53ce-91d2-1631a2a10a85/scratchpad/smwork/cross/dock_8XTT-model6

>  <Rbt.Executable>  (23) 
rbdock - v25.07-alpha

>  <Rbt.Library>  (23) 
libRbt.so (25.07, Buildalpha)

>  <Rbt.Parameter_File>  (23) 
/tmp/claude-0/-home-user-Rare-cancers/1af35c7f-7dc4-53ce-91d2-1631a2a10a85/scratchpad/rdroot/share/rDock/data/scripts/dock.prm

>  <Rbt.Receptor>  (23) 
rec.prm

>  <SCORE>  (23) 
-0.7779

>  <SCORE.INTER>  (23) 
-12.5394

>  <SCORE.INTER.CONST>  (23) 
1

>  <SCORE.INTER.POLAR>  (23) 
-0.505997

>  <SCORE.INTER.REPUL>  (23) 
0

>  <SCORE.INTER.ROT>  (23) 
7

>  <SCORE.INTER.VDW>  (23) 
-23.219

>  <SCORE.INTER.norm>  (23) 
-0.569972

>  <SCORE.INTRA>  (23) 
8.51576

>  <SCORE.INTRA.DIHEDRAL>  (23) 
8.13507

>  <SCORE.INTRA.DIHEDRAL.0>  (23) 
3.78927

>  <SCORE.INTRA.POLAR>  (23) 
0

>  <SCORE.INTRA.POLAR.0>  (23) 
0

>  <SCORE.INTRA.REPUL>  (23) 
0

>  <SCORE.INTRA.REPUL.0>  (23) 
0

>  <SCORE.INTRA.VDW>  (23) 
4.44823

>  <SCORE.INTRA.VDW.0>  (23) 
1.02728

>  <SCORE.INTRA.norm>  (23) 
0.38708

>  <SCORE.RESTR>  (23) 
0.840122

>  <SCORE.RESTR.CAVITY>  (23) 
0.840122

>  <SCORE.RESTR.norm>  (23) 
0.0381874

>  <SCORE.SYSTEM>  (23) 
2.40558

>  <SCORE.SYSTEM.CONST>  (23) 
0

>  <SCORE.SYSTEM.DIHEDRAL>  (23) 
3.50701

>  <SCORE.SYSTEM.POLAR>  (23) 
-1.73616

>  <SCORE.SYSTEM.REPUL>  (23) 
0.0232003

>  <SCORE.SYSTEM.VDW>  (23) 
6.439

>  <SCORE.SYSTEM.norm>  (23) 
0.109344

>  <SCORE.heavy>  (23) 
22

>  <SCORE.norm>  (23) 
-0.0353606

$$$$
denovo_401
     RDKit          3D

 22 23  0  0  0  0  0  0  0  0999 V2000
  -17.6357   16.9700  -14.0214 C   0  0  0  0  0  0  0  0  0  0  0  0
  -16.4884   17.1095  -14.8488 O   0  0  0  0  0  0  0  0  0  0  0  0
  -15.2825   17.1239  -14.0813 C   0  0  0  0  0  0  0  0  0  0  0  0
  -14.8787   15.6846  -13.6934 C   0  0  2  0  0  0  0  0  0  0  0  0
  -15.0677   15.4898  -12.1929 C   0  0  0  0  0  0  0  0  0  0  0  0
  -16.3481   15.2294  -11.6815 C   0  0  0  0  0  0  0  0  0  0  0  0
  -16.5441   15.0505  -10.3110 C   0  0  0  0  0  0  0  0  0  0  0  0
  -15.4645   15.1305   -9.4347 C   0  0  0  0  0  0  0  0  0  0  0  0
  -14.1878   15.3897   -9.9276 C   0  0  0  0  0  0  0  0  0  0  0  0
  -13.9892   15.5693  -11.2978 C   0  0  0  0  0  0  0  0  0  0  0  0
  -13.4397   15.3235  -14.1422 C   0  0  2  0  0  0  0  0  0  0  0  0
  -13.1563   15.5561  -15.6299 C   0  0  0  0  0  0  0  0  0  0  0  0
  -12.0380   14.5804  -16.0094 C   0  0  0  0  0  0  0  0  0  0  0  0
  -11.7987   13.6902  -14.7870 C   0  0  2  0  0  0  0  0  0  0  0  0
  -11.4852   12.2115  -15.0737 C   0  0  0  0  0  0  0  0  0  0  0  0
   -9.9940   11.8022  -15.3282 C   0  0  0  0  0  0  0  0  0  0  0  0
   -9.0900   12.4411  -14.2543 C   0  0  0  0  0  0  0  0  0  0  0  0
   -9.9300   10.2644  -15.1451 C   0  0  0  0  0  0  0  0  0  0  0  0
   -9.4998   12.1907  -16.7574 C   0  0  1  0  0  0  0  0  0  0  0  0
   -9.3737   13.6917  -17.0202 C   0  0  0  0  0  0  0  0  0  0  0  0
   -8.2127   11.6307  -17.0236 O   0  0  0  0  0  0  0  0  0  0  0  0
  -13.0972   13.8384  -13.9833 C   0  0  0  0  0  0  0  0  0  0  0  0
  1  2  1  0
  2  3  1  0
  4  3  1  1
  4  5  1  0
  5  6  2  0
  6  7  1  0
  7  8  2  0
  8  9  1  0
  9 10  2  0
  4 11  1  0
 11 12  1  6
 12 13  1  0
 13 14  1  0
 14 15  1  6
 15 16  1  0
 16 17  1  0
 16 18  1  0
 16 19  1  0
 19 20  1  1
 19 21  1  0
 14 22  1  0
 10  5  1  0
 22 11  1  0
M  END
>  <CHROM.0>  (24) 
20.06098428,172.92129841,-62.20480203,169.05571434,32.47290455,59.71605329
-71.57520333,-29.70682743

>  <CHROM.1>  (24) 
79.79845236,-110.31093608,80.19337900,-53.47914185,87.16645062,46.68883776
67.84294486,174.44047190,-12.97729919,14.33661420,-14.03984002,2.84798314
-0.65716133,1.89878400

>  <Name>  (24) 
denovo_401

>  <RI>  (24) 
3.94589e+08

>  <Rbt.Current_Directory>  (24) 
/tmp/claude-0/-home-user-Rare-cancers/1af35c7f-7dc4-53ce-91d2-1631a2a10a85/scratchpad/smwork/cross/dock_8XTT-model6

>  <Rbt.Executable>  (24) 
rbdock - v25.07-alpha

>  <Rbt.Library>  (24) 
libRbt.so (25.07, Buildalpha)

>  <Rbt.Parameter_File>  (24) 
/tmp/claude-0/-home-user-Rare-cancers/1af35c7f-7dc4-53ce-91d2-1631a2a10a85/scratchpad/rdroot/share/rDock/data/scripts/dock.prm

>  <Rbt.Receptor>  (24) 
rec.prm

>  <SCORE>  (24) 
1.4197

>  <SCORE.INTER>  (24) 
-15.7567

>  <SCORE.INTER.CONST>  (24) 
1

>  <SCORE.INTER.POLAR>  (24) 
-0.824621

>  <SCORE.INTER.REPUL>  (24) 
0

>  <SCORE.INTER.ROT>  (24) 
7

>  <SCORE.INTER.VDW>  (24) 
-25.353

>  <SCORE.INTER.norm>  (24) 
-0.716214

>  <SCORE.INTRA>  (24) 
7.70382

>  <SCORE.INTRA.DIHEDRAL>  (24) 
8.11209

>  <SCORE.INTRA.DIHEDRAL.0>  (24) 
3.78927

>  <SCORE.INTRA.POLAR>  (24) 
0

>  <SCORE.INTRA.POLAR.0>  (24) 
0

>  <SCORE.INTRA.REPUL>  (24) 
0

>  <SCORE.INTRA.REPUL.0>  (24) 
0

>  <SCORE.INTRA.VDW>  (24) 
3.64778

>  <SCORE.INTRA.VDW.0>  (24) 
1.02728

>  <SCORE.INTRA.norm>  (24) 
0.350174

>  <SCORE.RESTR>  (24) 
0

>  <SCORE.RESTR.CAVITY>  (24) 
0

>  <SCORE.RESTR.norm>  (24) 
0

>  <SCORE.SYSTEM>  (24) 
9.47256

>  <SCORE.SYSTEM.CONST>  (24) 
0

>  <SCORE.SYSTEM.DIHEDRAL>  (24) 
13.3836

>  <SCORE.SYSTEM.POLAR>  (24) 
-1.64552

>  <SCORE.SYSTEM.REPUL>  (24) 
0.0249189

>  <SCORE.SYSTEM.VDW>  (24) 
8.25092

>  <SCORE.SYSTEM.norm>  (24) 
0.430571

>  <SCORE.heavy>  (24) 
22

>  <SCORE.norm>  (24) 
0.0645306

$$$$
denovo_401
     RDKit          3D

 22 23  0  0  0  0  0  0  0  0999 V2000
  -14.4722   18.0803  -13.2451 C   0  0  0  0  0  0  0  0  0  0  0  0
  -13.9442   17.5929  -14.4715 O   0  0  0  0  0  0  0  0  0  0  0  0
  -14.7546   16.5498  -15.0178 C   0  0  0  0  0  0  0  0  0  0  0  0
  -14.3950   15.1967  -14.3659 C   0  0  2  0  0  0  0  0  0  0  0  0
  -14.7529   15.2345  -12.8842 C   0  0  0  0  0  0  0  0  0  0  0  0
  -16.0976   15.1540  -12.4915 C   0  0  0  0  0  0  0  0  0  0  0  0
  -16.4478   15.1894  -11.1406 C   0  0  0  0  0  0  0  0  0  0  0  0
  -15.4599   15.3067  -10.1658 C   0  0  0  0  0  0  0  0  0  0  0  0
  -14.1209   15.3889  -10.5405 C   0  0  0  0  0  0  0  0  0  0  0  0
  -13.7682   15.3540  -11.8908 C   0  0  0  0  0  0  0  0  0  0  0  0
  -12.9137   14.7982  -14.5884 C   0  0  2  0  0  0  0  0  0  0  0  0
  -12.3797   15.0813  -15.9964 C   0  0  0  0  0  0  0  0  0  0  0  0
  -11.2457   14.0789  -16.2328 C   0  0  0  0  0  0  0  0  0  0  0  0
  -11.2414   13.1297  -15.0315 C   0  0  2  0  0  0  0  0  0  0  0  0
  -10.9321   11.6531  -15.3328 C   0  0  0  0  0  0  0  0  0  0  0  0
   -9.6196   11.0319  -14.7435 C   0  0  0  0  0  0  0  0  0  0  0  0
   -9.0989   11.9156  -13.5917 C   0  0  0  0  0  0  0  0  0  0  0  0
  -10.0215    9.6611  -14.1421 C   0  0  0  0  0  0  0  0  0  0  0  0
   -8.5097   10.8361  -15.8241 C   0  0  1  0  0  0  0  0  0  0  0  0
   -8.9372   10.0541  -17.0665 C   0  0  0  0  0  0  0  0  0  0  0  0
   -8.0249   12.0953  -16.2937 O   0  0  0  0  0  0  0  0  0  0  0  0
  -12.6501   13.2954  -14.4463 C   0  0  0  0  0  0  0  0  0  0  0  0
  1  2  1  0
  2  3  1  0
  4  3  1  1
  4  5  1  0
  5  6  2  0
  6  7  1  0
  7  8  2  0
  8  9  1  0
  9 10  2  0
  4 11  1  0
 11 12  1  6
 12 13  1  0
 13 14  1  0
 14 15  1  6
 15 16  1  0
 16 17  1  0
 16 18  1  0
 16 19  1  0
 19 20  1  6
 19 21  1  0
 14 22  1  0
 10  5  1  0
 22 11  1  0
M  END
>  <CHROM.0>  (25) 
-59.28155007,-63.86727635,-59.15125898,178.00615064,-29.12858091,-63.39634354
-72.65719942,68.64113937

>  <CHROM.1>  (25) 
-83.07734368,65.12913377,74.40529640,-41.21693336,114.96745315,17.95702678
-53.04253399,172.68177139,-12.35199511,13.91941596,-14.13890728,-3.03689981
-0.78654483,2.28035447

>  <Name>  (25) 
denovo_401

>  <RI>  (25) 
3.94589e+08

>  <Rbt.Current_Directory>  (25) 
/tmp/claude-0/-home-user-Rare-cancers/1af35c7f-7dc4-53ce-91d2-1631a2a10a85/scratchpad/smwork/cross/dock_8XTT-model6

>  <Rbt.Executable>  (25) 
rbdock - v25.07-alpha

>  <Rbt.Library>  (25) 
libRbt.so (25.07, Buildalpha)

>  <Rbt.Parameter_File>  (25) 
/tmp/claude-0/-home-user-Rare-cancers/1af35c7f-7dc4-53ce-91d2-1631a2a10a85/scratchpad/rdroot/share/rDock/data/scripts/dock.prm

>  <Rbt.Receptor>  (25) 
rec.prm

>  <SCORE>  (25) 
4.2613

>  <SCORE.INTER>  (25) 
0.610943

>  <SCORE.INTER.CONST>  (25) 
1

>  <SCORE.INTER.POLAR>  (25) 
0

>  <SCORE.INTER.REPUL>  (25) 
0

>  <SCORE.INTER.ROT>  (25) 
7

>  <SCORE.INTER.VDW>  (25) 
-11.7891

>  <SCORE.INTER.norm>  (25) 
0.0277701

>  <SCORE.INTRA>  (25) 
10.9712

>  <SCORE.INTRA.DIHEDRAL>  (25) 
13.4477

>  <SCORE.INTRA.DIHEDRAL.0>  (25) 
3.78927

>  <SCORE.INTRA.POLAR>  (25) 
0

>  <SCORE.INTRA.POLAR.0>  (25) 
0

>  <SCORE.INTRA.REPUL>  (25) 
0

>  <SCORE.INTRA.REPUL.0>  (25) 
0

>  <SCORE.INTRA.VDW>  (25) 
4.24741

>  <SCORE.INTRA.VDW.0>  (25) 
1.02728

>  <SCORE.INTRA.norm>  (25) 
0.498693

>  <SCORE.RESTR>  (25) 
0

>  <SCORE.RESTR.CAVITY>  (25) 
0

>  <SCORE.RESTR.norm>  (25) 
0

>  <SCORE.SYSTEM>  (25) 
-7.32091

>  <SCORE.SYSTEM.CONST>  (25) 
0

>  <SCORE.SYSTEM.DIHEDRAL>  (25) 
5.04296

>  <SCORE.SYSTEM.POLAR>  (25) 
-2.95423

>  <SCORE.SYSTEM.VDW>  (25) 
0.202009

>  <SCORE.SYSTEM.norm>  (25) 
-0.332769

>  <SCORE.heavy>  (25) 
22

>  <SCORE.norm>  (25) 
0.193694

$$$$
denovo_401
     RDKit          3D

 22 23  0  0  0  0  0  0  0  0999 V2000
   -8.8166   11.1354  -18.3291 C   0  0  0  0  0  0  0  0  0  0  0  0
   -8.7346   10.3731  -17.1322 O   0  0  0  0  0  0  0  0  0  0  0  0
   -9.7855   10.7050  -16.2218 C   0  0  0  0  0  0  0  0  0  0  0  0
   -9.5266   12.0896  -15.5887 C   0  0  2  0  0  0  0  0  0  0  0  0
   -8.2789   12.0244  -14.7146 C   0  0  0  0  0  0  0  0  0  0  0  0
   -8.3990   12.1422  -13.3216 C   0  0  0  0  0  0  0  0  0  0  0  0
   -7.2697   12.0879  -12.5028 C   0  0  0  0  0  0  0  0  0  0  0  0
   -6.0069   11.9166  -13.0651 C   0  0  0  0  0  0  0  0  0  0  0  0
   -5.8719   11.7996  -14.4465 C   0  0  0  0  0  0  0  0  0  0  0  0
   -6.9998   11.8539  -15.2674 C   0  0  0  0  0  0  0  0  0  0  0  0
  -10.7497   12.6286  -14.8036 C   0  0  2  0  0  0  0  0  0  0  0  0
  -12.0166   11.7760  -14.9290 C   0  0  0  0  0  0  0  0  0  0  0  0
  -13.1959   12.7273  -14.7037 C   0  0  0  0  0  0  0  0  0  0  0  0
  -12.6095   14.1385  -14.6096 C   0  0  2  0  0  0  0  0  0  0  0  0
  -13.4380   15.2634  -15.2540 C   0  0  0  0  0  0  0  0  0  0  0  0
  -14.3474   16.1423  -14.3284 C   0  0  0  0  0  0  0  0  0  0  0  0
  -13.4853   16.8125  -13.2392 C   0  0  0  0  0  0  0  0  0  0  0  0
  -14.9261   17.2634  -15.2287 C   0  0  0  0  0  0  0  0  0  0  0  0
  -15.5091   15.3268  -13.6780 C   0  0  1  0  0  0  0  0  0  0  0  0
  -15.0972   14.4014  -12.5326 C   0  0  0  0  0  0  0  0  0  0  0  0
  -16.5100   16.1967  -13.1465 O   0  0  0  0  0  0  0  0  0  0  0  0
  -11.2402   13.9973  -15.2874 C   0  0  0  0  0  0  0  0  0  0  0  0
  1  2  1  0
  2  3  1  0
  4  3  1  1
  4  5  1  0
  5  6  2  0
  6  7  1  0
  7  8  2  0
  8  9  1  0
  9 10  2  0
  4 11  1  0
 11 12  1  6
 12 13  1  0
 13 14  1  0
 14 15  1  6
 15 16  1  0
 16 17  1  0
 16 18  1  0
 16 19  1  0
 19 20  1  1
 19 21  1  0
 14 22  1  0
 10  5  1  0
 22 11  1  0
M  END
>  <CHROM.0>  (26) 
-59.84100253,59.83747568,61.77187337,54.11776645,-57.69172673,-55.12089395
-76.53374405,-37.43780125

>  <CHROM.1>  (26) 
-73.07945234,-65.84101734,-111.67957266,-6.37707891,98.81773345,58.01318698
74.86008997,70.12846193,-11.15490076,13.34986667,-14.67447657,0.39297068
0.40300046,-2.10878202

>  <Name>  (26) 
denovo_401

>  <RI>  (26) 
3.94589e+08

>  <Rbt.Current_Directory>  (26) 
/tmp/claude-0/-home-user-Rare-cancers/1af35c7f-7dc4-53ce-91d2-1631a2a10a85/scratchpad/smwork/cross/dock_8XTT-model6

>  <Rbt.Executable>  (26) 
rbdock - v25.07-alpha

>  <Rbt.Library>  (26) 
libRbt.so (25.07, Buildalpha)

>  <Rbt.Parameter_File>  (26) 
/tmp/claude-0/-home-user-Rare-cancers/1af35c7f-7dc4-53ce-91d2-1631a2a10a85/scratchpad/rdroot/share/rDock/data/scripts/dock.prm

>  <Rbt.Receptor>  (26) 
rec.prm

>  <SCORE>  (26) 
4.4365

>  <SCORE.INTER>  (26) 
-0.907093

>  <SCORE.INTER.CONST>  (26) 
1

>  <SCORE.INTER.POLAR>  (26) 
0

>  <SCORE.INTER.REPUL>  (26) 
0

>  <SCORE.INTER.ROT>  (26) 
7

>  <SCORE.INTER.VDW>  (26) 
-13.3071

>  <SCORE.INTER.norm>  (26) 
-0.0412315

>  <SCORE.INTRA>  (26) 
10.1149

>  <SCORE.INTRA.DIHEDRAL>  (26) 
9.77305

>  <SCORE.INTRA.DIHEDRAL.0>  (26) 
3.78927

>  <SCORE.INTRA.POLAR>  (26) 
0

>  <SCORE.INTRA.POLAR.0>  (26) 
0

>  <SCORE.INTRA.REPUL>  (26) 
0

>  <SCORE.INTRA.REPUL.0>  (26) 
0

>  <SCORE.INTRA.VDW>  (26) 
5.22833

>  <SCORE.INTRA.VDW.0>  (26) 
1.02728

>  <SCORE.INTRA.norm>  (26) 
0.459766

>  <SCORE.RESTR>  (26) 
0

>  <SCORE.RESTR.CAVITY>  (26) 
0

>  <SCORE.RESTR.norm>  (26) 
0

>  <SCORE.SYSTEM>  (26) 
-4.77122

>  <SCORE.SYSTEM.CONST>  (26) 
0

>  <SCORE.SYSTEM.DIHEDRAL>  (26) 
3.75417

>  <SCORE.SYSTEM.POLAR>  (26) 
-2.02473

>  <SCORE.SYSTEM.REPUL>  (26) 
0.0574849

>  <SCORE.SYSTEM.VDW>  (26) 
-0.0516303

>  <SCORE.SYSTEM.norm>  (26) 
-0.216874

>  <SCORE.heavy>  (26) 
22

>  <SCORE.norm>  (26) 
0.201661

$$$$
denovo_401
     RDKit          3D

 22 23  0  0  0  0  0  0  0  0999 V2000
   -6.9753   10.7722  -17.5040 C   0  0  0  0  0  0  0  0  0  0  0  0
   -8.3265   10.3368  -17.5756 O   0  0  0  0  0  0  0  0  0  0  0  0
   -8.8154    9.9204  -16.2986 C   0  0  0  0  0  0  0  0  0  0  0  0
   -9.0889   11.1494  -15.4043 C   0  0  2  0  0  0  0  0  0  0  0  0
   -9.4099   10.6866  -13.9873 C   0  0  0  0  0  0  0  0  0  0  0  0
   -8.7946   11.3157  -12.8944 C   0  0  0  0  0  0  0  0  0  0  0  0
   -9.0719   10.9062  -11.5890 C   0  0  0  0  0  0  0  0  0  0  0  0
   -9.9659    9.8632  -11.3592 C   0  0  0  0  0  0  0  0  0  0  0  0
  -10.5833    9.2283  -12.4342 C   0  0  0  0  0  0  0  0  0  0  0  0
  -10.3074    9.6358  -13.7407 C   0  0  0  0  0  0  0  0  0  0  0  0
  -10.1991   12.0699  -15.9726 C   0  0  2  0  0  0  0  0  0  0  0  0
   -9.7038   13.1415  -16.9493 C   0  0  0  0  0  0  0  0  0  0  0  0
  -10.7115   14.2923  -16.8680 C   0  0  0  0  0  0  0  0  0  0  0  0
  -11.6837   13.9453  -15.7373 C   0  0  2  0  0  0  0  0  0  0  0  0
  -12.1593   15.1200  -14.8651 C   0  0  0  0  0  0  0  0  0  0  0  0
  -13.6207   15.6503  -15.0626 C   0  0  0  0  0  0  0  0  0  0  0  0
  -13.9250   15.7844  -16.5687 C   0  0  0  0  0  0  0  0  0  0  0  0
  -14.5587   14.5589  -14.4869 C   0  0  0  0  0  0  0  0  0  0  0  0
  -13.8709   17.0082  -14.3337 C   0  0  1  0  0  0  0  0  0  0  0  0
  -15.3120   17.5173  -14.3760 C   0  0  0  0  0  0  0  0  0  0  0  0
  -13.5208   16.9190  -12.9514 O   0  0  0  0  0  0  0  0  0  0  0  0
  -10.9062   12.9149  -14.9077 C   0  0  0  0  0  0  0  0  0  0  0  0
  1  2  1  0
  2  3  1  0
  4  3  1  6
  4  5  1  0
  5  6  2  0
  6  7  1  0
  7  8  2  0
  8  9  1  0
  9 10  2  0
  4 11  1  0
 11 12  1  6
 12 13  1  0
 13 14  1  0
 14 15  1  1
 15 16  1  0
 16 17  1  0
 16 18  1  0
 16 19  1  0
 19 20  1  1
 19 21  1  0
 14 22  1  0
 10  5  1  0
 22 11  1  0
M  END
>  <CHROM.0>  (27) 
-178.06556352,-62.96080471,-60.04461432,-176.36983408,-178.07216295,-59.78672096
-74.34858267,67.15273237

>  <CHROM.1>  (27) 
74.54178487,-171.68831850,133.61136484,-87.85309189,105.60669262,-44.97871588
-174.52783224,158.20657512,-11.01784965,12.93279495,-14.85931629,-0.31079386
0.82262920,-1.12107199

>  <Name>  (27) 
denovo_401

>  <RI>  (27) 
3.94589e+08

>  <Rbt.Current_Directory>  (27) 
/tmp/claude-0/-home-user-Rare-cancers/1af35c7f-7dc4-53ce-91d2-1631a2a10a85/scratchpad/smwork/cross/dock_8XTT-model6

>  <Rbt.Executable>  (27) 
rbdock - v25.07-alpha

>  <Rbt.Library>  (27) 
libRbt.so (25.07, Buildalpha)

>  <Rbt.Parameter_File>  (27) 
/tmp/claude-0/-home-user-Rare-cancers/1af35c7f-7dc4-53ce-91d2-1631a2a10a85/scratchpad/rdroot/share/rDock/data/scripts/dock.prm

>  <Rbt.Receptor>  (27) 
rec.prm

>  <SCORE>  (27) 
5.6874

>  <SCORE.INTER>  (27) 
7.47349

>  <SCORE.INTER.CONST>  (27) 
1

>  <SCORE.INTER.POLAR>  (27) 
-1.13137

>  <SCORE.INTER.REPUL>  (27) 
0

>  <SCORE.INTER.ROT>  (27) 
7

>  <SCORE.INTER.VDW>  (27) 
-1.07985

>  <SCORE.INTER.norm>  (27) 
0.339704

>  <SCORE.INTRA>  (27) 
7.31508

>  <SCORE.INTRA.DIHEDRAL>  (27) 
9.37756

>  <SCORE.INTRA.DIHEDRAL.0>  (27) 
3.78927

>  <SCORE.INTRA.POLAR>  (27) 
0

>  <SCORE.INTRA.POLAR.0>  (27) 
0

>  <SCORE.INTRA.REPUL>  (27) 
0

>  <SCORE.INTRA.REPUL.0>  (27) 
0

>  <SCORE.INTRA.VDW>  (27) 
2.6263

>  <SCORE.INTRA.VDW.0>  (27) 
1.02728

>  <SCORE.INTRA.norm>  (27) 
0.332504

>  <SCORE.RESTR>  (27) 
0.0516476

>  <SCORE.RESTR.CAVITY>  (27) 
0.0516476

>  <SCORE.RESTR.norm>  (27) 
0.00234762

>  <SCORE.SYSTEM>  (27) 
-9.15279

>  <SCORE.SYSTEM.CONST>  (27) 
0

>  <SCORE.SYSTEM.DIHEDRAL>  (27) 
1.33597

>  <SCORE.SYSTEM.POLAR>  (27) 
-2.47519

>  <SCORE.SYSTEM.VDW>  (27) 
-1.40513

>  <SCORE.SYSTEM.norm>  (27) 
-0.416036

>  <SCORE.heavy>  (27) 
22

>  <SCORE.norm>  (27) 
0.25852

$$$$
denovo_401
     RDKit          3D

 22 23  0  0  0  0  0  0  0  0999 V2000
   -8.3685   12.8194  -18.5735 C   0  0  0  0  0  0  0  0  0  0  0  0
   -8.8265   13.0858  -17.2545 O   0  0  0  0  0  0  0  0  0  0  0  0
  -10.1241   13.6854  -17.2572 C   0  0  0  0  0  0  0  0  0  0  0  0
  -10.6320   13.8669  -15.8101 C   0  0  2  0  0  0  0  0  0  0  0  0
  -10.2373   12.6529  -14.9762 C   0  0  0  0  0  0  0  0  0  0  0  0
  -10.9180   11.4384  -15.1508 C   0  0  0  0  0  0  0  0  0  0  0  0
  -10.5748   10.3153  -14.3961 C   0  0  0  0  0  0  0  0  0  0  0  0
   -9.5487   10.3916  -13.4573 C   0  0  0  0  0  0  0  0  0  0  0  0
   -8.8648   11.5908  -13.2719 C   0  0  0  0  0  0  0  0  0  0  0  0
   -9.2064   12.7154  -14.0253 C   0  0  0  0  0  0  0  0  0  0  0  0
  -12.1560   14.1409  -15.7390 C   0  0  2  0  0  0  0  0  0  0  0  0
  -12.5347   15.6204  -15.6152 C   0  0  0  0  0  0  0  0  0  0  0  0
  -13.8943   15.6559  -14.9105 C   0  0  0  0  0  0  0  0  0  0  0  0
  -14.2107   14.2168  -14.4945 C   0  0  2  0  0  0  0  0  0  0  0  0
  -14.9099   14.0399  -13.1356 C   0  0  0  0  0  0  0  0  0  0  0  0
  -15.0533   15.2915  -12.2034 C   0  0  0  0  0  0  0  0  0  0  0  0
  -13.6956   16.0148  -12.0932 C   0  0  0  0  0  0  0  0  0  0  0  0
  -16.0424   16.2498  -12.9146 C   0  0  0  0  0  0  0  0  0  0  0  0
  -15.5919   14.9253  -10.7844 C   0  0  1  0  0  0  0  0  0  0  0  0
  -15.9843   16.1144   -9.9069 C   0  0  0  0  0  0  0  0  0  0  0  0
  -16.7528   14.0977  -10.8755 O   0  0  0  0  0  0  0  0  0  0  0  0
  -12.8357   13.5361  -14.5060 C   0  0  0  0  0  0  0  0  0  0  0  0
  1  2  1  0
  2  3  1  0
  4  3  1  6
  4  5  1  0
  5  6  2  0
  6  7  1  0
  7  8  2  0
  8  9  1  0
  9 10  2  0
  4 11  1  0
 11 12  1  1
 12 13  1  0
 13 14  1  0
 14 15  1  1
 15 16  1  0
 16 17  1  0
 16 18  1  0
 16 19  1  0
 19 20  1  1
 19 21  1  0
 14 22  1  0
 10  5  1  0
 22 11  1  0
M  END
>  <CHROM.0>  (28) 
-176.24189818,60.59618013,-60.21431372,-69.30465298,32.41934722,-179.55846430
-71.21949094,65.79408377

>  <CHROM.1>  (28) 
175.92834613,-39.18230145,-74.11473230,-97.46384098,-8.71704938,-48.34230792
-169.88305101,175.62350314,-12.38005355,13.79783051,-14.13531328,0.23795317
0.67075439,-0.95352114

>  <Name>  (28) 
denovo_401

>  <RI>  (28) 
3.94589e+08

>  <Rbt.Current_Directory>  (28) 
/tmp/claude-0/-home-user-Rare-cancers/1af35c7f-7dc4-53ce-91d2-1631a2a10a85/scratchpad/smwork/cross/dock_8XTT-model6

>  <Rbt.Executable>  (28) 
rbdock - v25.07-alpha

>  <Rbt.Library>  (28) 
libRbt.so (25.07, Buildalpha)

>  <Rbt.Parameter_File>  (28) 
/tmp/claude-0/-home-user-Rare-cancers/1af35c7f-7dc4-53ce-91d2-1631a2a10a85/scratchpad/rdroot/share/rDock/data/scripts/dock.prm

>  <Rbt.Receptor>  (28) 
rec.prm

>  <SCORE>  (28) 
6.2248

>  <SCORE.INTER>  (28) 
-10.7774

>  <SCORE.INTER.CONST>  (28) 
1

>  <SCORE.INTER.POLAR>  (28) 
-0.15389

>  <SCORE.INTER.REPUL>  (28) 
0

>  <SCORE.INTER.ROT>  (28) 
7

>  <SCORE.INTER.VDW>  (28) 
-22.6541

>  <SCORE.INTER.norm>  (28) 
-0.48988

>  <SCORE.INTRA>  (28) 
13.3248

>  <SCORE.INTRA.DIHEDRAL>  (28) 
9.5935

>  <SCORE.INTRA.DIHEDRAL.0>  (28) 
3.78927

>  <SCORE.INTRA.POLAR>  (28) 
0

>  <SCORE.INTRA.POLAR.0>  (28) 
0

>  <SCORE.INTRA.REPUL>  (28) 
0

>  <SCORE.INTRA.REPUL.0>  (28) 
0

>  <SCORE.INTRA.VDW>  (28) 
8.52806

>  <SCORE.INTRA.VDW.0>  (28) 
1.02728

>  <SCORE.INTRA.norm>  (28) 
0.605673

>  <SCORE.RESTR>  (28) 
0

>  <SCORE.RESTR.CAVITY>  (28) 
0

>  <SCORE.RESTR.norm>  (28) 
0

>  <SCORE.SYSTEM>  (28) 
3.67734

>  <SCORE.SYSTEM.CONST>  (28) 
0

>  <SCORE.SYSTEM.DIHEDRAL>  (28) 
4.20742

>  <SCORE.SYSTEM.POLAR>  (28) 
-1.19468

>  <SCORE.SYSTEM.REPUL>  (28) 
0.370571

>  <SCORE.SYSTEM.VDW>  (28) 
3.78269

>  <SCORE.SYSTEM.norm>  (28) 
0.167152

>  <SCORE.heavy>  (28) 
22

>  <SCORE.norm>  (28) 
0.282945

$$$$
denovo_401
     RDKit          3D

 22 23  0  0  0  0  0  0  0  0999 V2000
   -9.7416    8.9715  -18.2512 C   0  0  0  0  0  0  0  0  0  0  0  0
   -9.7432   10.1774  -17.4987 O   0  0  0  0  0  0  0  0  0  0  0  0
   -9.1182   10.0055  -16.2247 C   0  0  0  0  0  0  0  0  0  0  0  0
   -9.3115   11.2702  -15.3596 C   0  0  2  0  0  0  0  0  0  0  0  0
   -9.5160   10.8649  -13.9040 C   0  0  0  0  0  0  0  0  0  0  0  0
   -8.7377   11.4612  -12.9003 C   0  0  0  0  0  0  0  0  0  0  0  0
   -8.9065   11.1032  -11.5617 C   0  0  0  0  0  0  0  0  0  0  0  0
   -9.8536   10.1446  -11.2092 C   0  0  0  0  0  0  0  0  0  0  0  0
  -10.6327    9.5430  -12.1947 C   0  0  0  0  0  0  0  0  0  0  0  0
  -10.4654    9.8992  -13.5342 C   0  0  0  0  0  0  0  0  0  0  0  0
  -10.4610   12.1763  -15.8699 C   0  0  2  0  0  0  0  0  0  0  0  0
  -10.0230   13.2824  -16.8355 C   0  0  0  0  0  0  0  0  0  0  0  0
  -11.0547   14.4059  -16.6944 C   0  0  0  0  0  0  0  0  0  0  0  0
  -11.9813   14.0087  -15.5422 C   0  0  2  0  0  0  0  0  0  0  0  0
  -12.4563   15.1506  -14.6271 C   0  0  0  0  0  0  0  0  0  0  0  0
  -13.8475   15.8100  -14.9200 C   0  0  0  0  0  0  0  0  0  0  0  0
  -13.8833   17.2322  -14.3245 C   0  0  0  0  0  0  0  0  0  0  0  0
  -13.9487   15.9407  -16.4611 C   0  0  0  0  0  0  0  0  0  0  0  0
  -15.0406   14.9620  -14.3766 C   0  0  1  0  0  0  0  0  0  0  0  0
  -14.9178   14.5196  -12.9181 C   0  0  0  0  0  0  0  0  0  0  0  0
  -16.2682   15.6868  -14.4705 O   0  0  0  0  0  0  0  0  0  0  0  0
  -11.1532   12.9785  -14.7629 C   0  0  0  0  0  0  0  0  0  0  0  0
  1  2  1  0
  2  3  1  0
  4  3  1  6
  4  5  1  0
  5  6  2  0
  6  7  1  0
  7  8  2  0
  8  9  1  0
  9 10  2  0
  4 11  1  0
 11 12  1  6
 12 13  1  0
 13 14  1  0
 14 15  1  1
 15 16  1  0
 16 17  1  0
 16 18  1  0
 16 19  1  0
 19 20  1  1
 19 21  1  0
 14 22  1  0
 10  5  1  0
 22 11  1  0
M  END
>  <CHROM.0>  (29) 
-57.38027462,-63.26538395,-58.62515207,51.02806178,-174.62026002,-54.32327159
-69.78220039,-32.93875367

>  <CHROM.1>  (29) 
-172.09017505,143.25222285,128.87349171,-92.78984273,95.63262785,-156.76543838
50.03464508,-63.13506061,-11.49171705,12.76764071,-14.80851406,-0.12904533
0.83062011,-1.39190287

>  <Name>  (29) 
denovo_401

>  <RI>  (29) 
3.94589e+08

>  <Rbt.Current_Directory>  (29) 
/tmp/claude-0/-home-user-Rare-cancers/1af35c7f-7dc4-53ce-91d2-1631a2a10a85/scratchpad/smwork/cross/dock_8XTT-model6

>  <Rbt.Executable>  (29) 
rbdock - v25.07-alpha

>  <Rbt.Library>  (29) 
libRbt.so (25.07, Buildalpha)

>  <Rbt.Parameter_File>  (29) 
/tmp/claude-0/-home-user-Rare-cancers/1af35c7f-7dc4-53ce-91d2-1631a2a10a85/scratchpad/rdroot/share/rDock/data/scripts/dock.prm

>  <Rbt.Receptor>  (29) 
rec.prm

>  <SCORE>  (29) 
7.7843

>  <SCORE.INTER>  (29) 
8.03504

>  <SCORE.INTER.CONST>  (29) 
1

>  <SCORE.INTER.POLAR>  (29) 
-1.21734

>  <SCORE.INTER.REPUL>  (29) 
0

>  <SCORE.INTER.ROT>  (29) 
7

>  <SCORE.INTER.VDW>  (29) 
-0.226005

>  <SCORE.INTER.norm>  (29) 
0.365229

>  <SCORE.INTRA>  (29) 
8.80605

>  <SCORE.INTRA.DIHEDRAL>  (29) 
10.8288

>  <SCORE.INTRA.DIHEDRAL.0>  (29) 
3.78927

>  <SCORE.INTRA.POLAR>  (29) 
0

>  <SCORE.INTRA.POLAR.0>  (29) 
0

>  <SCORE.INTRA.REPUL>  (29) 
0

>  <SCORE.INTRA.REPUL.0>  (29) 
0

>  <SCORE.INTRA.VDW>  (29) 
3.39166

>  <SCORE.INTRA.VDW.0>  (29) 
1.02728

>  <SCORE.INTRA.norm>  (29) 
0.400275

>  <SCORE.RESTR>  (29) 
0.14365

>  <SCORE.RESTR.CAVITY>  (29) 
0.14365

>  <SCORE.RESTR.norm>  (29) 
0.00652956

>  <SCORE.SYSTEM>  (29) 
-9.20039

>  <SCORE.SYSTEM.CONST>  (29) 
0

>  <SCORE.SYSTEM.DIHEDRAL>  (29) 
4.1129

>  <SCORE.SYSTEM.POLAR>  (29) 
-3.07961

>  <SCORE.SYSTEM.VDW>  (29) 
-0.786161

>  <SCORE.SYSTEM.norm>  (29) 
-0.4182

>  <SCORE.heavy>  (29) 
22

>  <SCORE.norm>  (29) 
0.353834

$$$$
denovo_401
     RDKit          3D

 22 23  0  0  0  0  0  0  0  0999 V2000
   -9.7159    8.6685  -18.3806 C   0  0  0  0  0  0  0  0  0  0  0  0
   -9.8365    9.8206  -17.5570 O   0  0  0  0  0  0  0  0  0  0  0  0
   -8.9083    9.7923  -16.4702 C   0  0  0  0  0  0  0  0  0  0  0  0
   -9.1034   11.0308  -15.5684 C   0  0  2  0  0  0  0  0  0  0  0  0
   -9.3971   10.5802  -14.1416 C   0  0  0  0  0  0  0  0  0  0  0  0
  -10.2253    9.4695  -13.9199 C   0  0  0  0  0  0  0  0  0  0  0  0
  -10.5095    9.0415  -12.6219 C   0  0  0  0  0  0  0  0  0  0  0  0
   -9.9712    9.7180  -11.5298 C   0  0  0  0  0  0  0  0  0  0  0  0
   -9.1484   10.8231  -11.7343 C   0  0  0  0  0  0  0  0  0  0  0  0
   -8.8630   11.2532  -13.0314 C   0  0  0  0  0  0  0  0  0  0  0  0
  -10.1933   11.9955  -16.1014 C   0  0  2  0  0  0  0  0  0  0  0  0
   -9.6709   13.1079  -17.0164 C   0  0  0  0  0  0  0  0  0  0  0  0
  -10.6630   14.2680  -16.8878 C   0  0  0  0  0  0  0  0  0  0  0  0
  -11.6536   13.8785  -15.7873 C   0  0  2  0  0  0  0  0  0  0  0  0
  -12.1227   15.0142  -14.8617 C   0  0  0  0  0  0  0  0  0  0  0  0
  -13.5823   15.5589  -15.0321 C   0  0  0  0  0  0  0  0  0  0  0  0
  -13.9180   15.6831  -16.5323 C   0  0  0  0  0  0  0  0  0  0  0  0
  -14.5193   14.4832  -14.4261 C   0  0  0  0  0  0  0  0  0  0  0  0
  -13.8015   16.9259  -14.3102 C   0  0  1  0  0  0  0  0  0  0  0  0
  -15.2499   17.4133  -14.2585 C   0  0  0  0  0  0  0  0  0  0  0  0
  -13.3530   16.8667  -12.9550 O   0  0  0  0  0  0  0  0  0  0  0  0
  -10.9010   12.7957  -15.0028 C   0  0  0  0  0  0  0  0  0  0  0  0
  1  2  1  0
  2  3  1  0
  4  3  1  6
  4  5  1  0
  5  6  2  0
  6  7  1  0
  7  8  2  0
  8  9  1  0
  9 10  2  0
  4 11  1  0
 11 12  1  6
 12 13  1  0
 13 14  1  0
 14 15  1  1
 15 16  1  0
 16 17  1  0
 16 18  1  0
 16 19  1  0
 19 20  1  1
 19 21  1  0
 14 22  1  0
 10  5  1  0
 22 11  1  0
M  END
>  <CHROM.0>  (30) 
-176.55067400,-58.03704831,-60.12015479,-58.90861856,-23.30530730,62.57530057
-176.96628711,66.24468566

>  <CHROM.1>  (30) 
-177.88342787,122.61193798,-39.32975276,-91.97126552,106.63602336,-41.62821426
-171.30115685,164.69833226,-11.21056146,12.71612421,-14.96094012,-0.01669879
0.97396555,-1.47630548

>  <Name>  (30) 
denovo_401

>  <RI>  (30) 
3.94589e+08

>  <Rbt.Current_Directory>  (30) 
/tmp/claude-0/-home-user-Rare-cancers/1af35c7f-7dc4-53ce-91d2-1631a2a10a85/scratchpad/smwork/cross/dock_8XTT-model6

>  <Rbt.Executable>  (30) 
rbdock - v25.07-alpha

>  <Rbt.Library>  (30) 
libRbt.so (25.07, Buildalpha)

>  <Rbt.Parameter_File>  (30) 
/tmp/claude-0/-home-user-Rare-cancers/1af35c7f-7dc4-53ce-91d2-1631a2a10a85/scratchpad/rdroot/share/rDock/data/scripts/dock.prm

>  <Rbt.Receptor>  (30) 
rec.prm

>  <SCORE>  (30) 
10.9232

>  <SCORE.INTER>  (30) 
4.05943

>  <SCORE.INTER.CONST>  (30) 
1

>  <SCORE.INTER.POLAR>  (30) 
-1.65616

>  <SCORE.INTER.REPUL>  (30) 
0

>  <SCORE.INTER.ROT>  (30) 
7

>  <SCORE.INTER.VDW>  (30) 
-2.70963

>  <SCORE.INTER.norm>  (30) 
0.184519

>  <SCORE.INTRA>  (30) 
10.1985

>  <SCORE.INTRA.DIHEDRAL>  (30) 
13.6111

>  <SCORE.INTRA.DIHEDRAL.0>  (30) 
3.78927

>  <SCORE.INTRA.POLAR>  (30) 
0

>  <SCORE.INTRA.POLAR.0>  (30) 
0

>  <SCORE.INTRA.REPUL>  (30) 
0

>  <SCORE.INTRA.REPUL.0>  (30) 
0

>  <SCORE.INTRA.VDW>  (30) 
3.39294

>  <SCORE.INTRA.VDW.0>  (30) 
1.02728

>  <SCORE.INTRA.norm>  (30) 
0.463567

>  <SCORE.RESTR>  (30) 
0.0121297

>  <SCORE.RESTR.CAVITY>  (30) 
0.0121297

>  <SCORE.RESTR.norm>  (30) 
0.00055135

>  <SCORE.SYSTEM>  (30) 
-3.34682

>  <SCORE.SYSTEM.CONST>  (30) 
0

>  <SCORE.SYSTEM.DIHEDRAL>  (30) 
5.19179

>  <SCORE.SYSTEM.POLAR>  (30) 
-2.28988

>  <SCORE.SYSTEM.REPUL>  (30) 
0.0674726

>  <SCORE.SYSTEM.VDW>  (30) 
1.5055

>  <SCORE.SYSTEM.norm>  (30) 
-0.152128

>  <SCORE.heavy>  (30) 
22

>  <SCORE.norm>  (30) 
0.496509

$$$$
denovo_401
     RDKit          3D

 22 23  0  0  0  0  0  0  0  0999 V2000
   -7.2377   10.3285  -17.0921 C   0  0  0  0  0  0  0  0  0  0  0  0
   -7.7886   11.1021  -16.0346 O   0  0  0  0  0  0  0  0  0  0  0  0
   -9.0874   11.5992  -16.3651 C   0  0  0  0  0  0  0  0  0  0  0  0
   -9.6541   12.4332  -15.1954 C   0  0  2  0  0  0  0  0  0  0  0  0
   -9.7925   11.5496  -13.9604 C   0  0  0  0  0  0  0  0  0  0  0  0
  -10.7934   10.5672  -13.9171 C   0  0  0  0  0  0  0  0  0  0  0  0
  -10.9396    9.7491  -12.7955 C   0  0  0  0  0  0  0  0  0  0  0  0
  -10.0890    9.9028  -11.7033 C   0  0  0  0  0  0  0  0  0  0  0  0
   -9.0915   10.8746  -11.7313 C   0  0  0  0  0  0  0  0  0  0  0  0
   -8.9435   11.6941  -12.8518 C   0  0  0  0  0  0  0  0  0  0  0  0
  -10.9893   13.1357  -15.5508 C   0  0  2  0  0  0  0  0  0  0  0  0
  -10.8762   14.2145  -16.6330 C   0  0  0  0  0  0  0  0  0  0  0  0
  -12.0238   15.1968  -16.3787 C   0  0  0  0  0  0  0  0  0  0  0  0
  -12.6869   14.7670  -15.0673 C   0  0  2  0  0  0  0  0  0  0  0  0
  -13.1697   15.9006  -14.1461 C   0  0  0  0  0  0  0  0  0  0  0  0
  -14.4068   15.6333  -13.2218 C   0  0  0  0  0  0  0  0  0  0  0  0
  -14.8051   14.1456  -13.3054 C   0  0  0  0  0  0  0  0  0  0  0  0
  -13.9334   15.9145  -11.7730 C   0  0  0  0  0  0  0  0  0  0  0  0
  -15.6260   16.5438  -13.5714 C   0  0  1  0  0  0  0  0  0  0  0  0
  -15.2733   17.9393  -14.0875 C   0  0  0  0  0  0  0  0  0  0  0  0
  -16.4422   15.9420  -14.5777 O   0  0  0  0  0  0  0  0  0  0  0  0
  -11.6045   13.9190  -14.3863 C   0  0  0  0  0  0  0  0  0  0  0  0
  1  2  1  0
  2  3  1  0
  4  3  1  6
  4  5  1  0
  5  6  2  0
  6  7  1  0
  7  8  2  0
  8  9  1  0
  9 10  2  0
  4 11  1  0
 11 12  1  6
 12 13  1  0
 13 14  1  0
 14 15  1  1
 15 16  1  0
 16 17  1  0
 16 18  1  0
 16 19  1  0
 19 20  1  6
 19 21  1  0
 14 22  1  0
 10  5  1  0
 22 11  1  0
M  END
>  <CHROM.0>  (31) 
-59.70736407,-62.10641281,-60.46472145,176.88814027,-25.98800828,-56.32302391
-68.12212678,-178.63054963

>  <CHROM.1>  (31) 
179.99162639,-61.50515883,-71.60868567,-65.79859128,150.19668290,7.23097240
-32.78771942,171.14385237,-11.65585125,13.38054167,-14.32969764,-0.26082549
0.68925140,-1.01730486

>  <Name>  (31) 
denovo_401

>  <RI>  (31) 
3.94589e+08

>  <Rbt.Current_Directory>  (31) 
/tmp/claude-0/-home-user-Rare-cancers/1af35c7f-7dc4-53ce-91d2-1631a2a10a85/scratchpad/smwork/cross/dock_8XTT-model6

>  <Rbt.Executable>  (31) 
rbdock - v25.07-alpha

>  <Rbt.Library>  (31) 
libRbt.so (25.07, Buildalpha)

>  <Rbt.Parameter_File>  (31) 
/tmp/claude-0/-home-user-Rare-cancers/1af35c7f-7dc4-53ce-91d2-1631a2a10a85/scratchpad/rdroot/share/rDock/data/scripts/dock.prm

>  <Rbt.Receptor>  (31) 
rec.prm

>  <SCORE>  (31) 
12.2485

>  <SCORE.INTER>  (31) 
11.9092

>  <SCORE.INTER.CONST>  (31) 
1

>  <SCORE.INTER.POLAR>  (31) 
-0.824621

>  <SCORE.INTER.REPUL>  (31) 
0

>  <SCORE.INTER.ROT>  (31) 
7

>  <SCORE.INTER.VDW>  (31) 
2.31293

>  <SCORE.INTER.norm>  (31) 
0.541328

>  <SCORE.INTRA>  (31) 
7.96547

>  <SCORE.INTRA.DIHEDRAL>  (31) 
9.96764

>  <SCORE.INTRA.DIHEDRAL.0>  (31) 
3.78927

>  <SCORE.INTRA.POLAR>  (31) 
0

>  <SCORE.INTRA.POLAR.0>  (31) 
0

>  <SCORE.INTRA.REPUL>  (31) 
0

>  <SCORE.INTRA.REPUL.0>  (31) 
0

>  <SCORE.INTRA.VDW>  (31) 
2.98165

>  <SCORE.INTRA.VDW.0>  (31) 
1.02728

>  <SCORE.INTRA.norm>  (31) 
0.362067

>  <SCORE.RESTR>  (31) 
0

>  <SCORE.RESTR.CAVITY>  (31) 
0

>  <SCORE.RESTR.norm>  (31) 
0

>  <SCORE.SYSTEM>  (31) 
-7.62617

>  <SCORE.SYSTEM.CONST>  (31) 
0

>  <SCORE.SYSTEM.DIHEDRAL>  (31) 
4.80327

>  <SCORE.SYSTEM.POLAR>  (31) 
-3.06628

>  <SCORE.SYSTEM.VDW>  (31) 
0.397553

>  <SCORE.SYSTEM.norm>  (31) 
-0.346644

>  <SCORE.heavy>  (31) 
22

>  <SCORE.norm>  (31) 
0.556751

$$$$
denovo_401
     RDKit          3D

 22 23  0  0  0  0  0  0  0  0999 V2000
   -9.3708    9.5323  -17.4725 C   0  0  0  0  0  0  0  0  0  0  0  0
   -9.6494   10.2512  -16.2783 O   0  0  0  0  0  0  0  0  0  0  0  0
   -9.0969   11.5690  -16.3143 C   0  0  0  0  0  0  0  0  0  0  0  0
   -9.6694   12.4202  -15.1599 C   0  0  2  0  0  0  0  0  0  0  0  0
   -9.8171   11.5542  -13.9136 C   0  0  0  0  0  0  0  0  0  0  0  0
   -8.9018   11.6917  -12.8590 C   0  0  0  0  0  0  0  0  0  0  0  0
   -9.0167   10.9073  -11.7101 C   0  0  0  0  0  0  0  0  0  0  0  0
  -10.0462    9.9755  -11.6007 C   0  0  0  0  0  0  0  0  0  0  0  0
  -10.9616    9.8268  -12.6400 C   0  0  0  0  0  0  0  0  0  0  0  0
  -10.8485   10.6100  -13.7901 C   0  0  0  0  0  0  0  0  0  0  0  0
  -11.0012   13.1199  -15.5335 C   0  0  2  0  0  0  0  0  0  0  0  0
  -10.8765   14.1950  -16.6181 C   0  0  0  0  0  0  0  0  0  0  0  0
  -12.0281   15.1769  -16.3808 C   0  0  0  0  0  0  0  0  0  0  0  0
  -12.7061   14.7509  -15.0758 C   0  0  2  0  0  0  0  0  0  0  0  0
  -13.2011   15.8872  -14.1644 C   0  0  0  0  0  0  0  0  0  0  0  0
  -14.4295   15.6117  -13.2310 C   0  0  0  0  0  0  0  0  0  0  0  0
  -14.8156   14.1205  -13.3080 C   0  0  0  0  0  0  0  0  0  0  0  0
  -13.9487   15.9009  -11.7861 C   0  0  0  0  0  0  0  0  0  0  0  0
  -15.6588   16.5109  -13.5747 C   0  0  1  0  0  0  0  0  0  0  0  0
  -15.3216   17.9097  -14.0920 C   0  0  0  0  0  0  0  0  0  0  0  0
  -16.4740   15.9016  -14.5773 O   0  0  0  0  0  0  0  0  0  0  0  0
  -11.6309   13.9066  -14.3791 C   0  0  0  0  0  0  0  0  0  0  0  0
  1  2  1  0
  2  3  1  0
  4  3  1  6
  4  5  1  0
  5  6  2  0
  6  7  1  0
  7  8  2  0
  8  9  1  0
  9 10  2  0
  4 11  1  0
 11 12  1  6
 12 13  1  0
 13 14  1  0
 14 15  1  1
 15 16  1  0
 16 17  1  0
 16 18  1  0
 16 19  1  0
 19 20  1  6
 19 21  1  0
 14 22  1  0
 10  5  1  0
 22 11  1  0
M  END
>  <CHROM.0>  (32) 
-59.84154873,61.70939258,-60.50541174,53.36697733,-176.05296240,-56.91743708
-73.83614034,66.42487139

>  <CHROM.1>  (32) 
167.62030350,37.97843462,104.75626254,-66.49624179,151.50175138,6.63884873
-32.99897406,169.13272583,-11.86950991,13.29194885,-14.33945563,-0.13530942
0.79948769,-1.25345553

>  <Name>  (32) 
denovo_401

>  <RI>  (32) 
3.94589e+08

>  <Rbt.Current_Directory>  (32) 
/tmp/claude-0/-home-user-Rare-cancers/1af35c7f-7dc4-53ce-91d2-1631a2a10a85/scratchpad/smwork/cross/dock_8XTT-model6

>  <Rbt.Executable>  (32) 
rbdock - v25.07-alpha

>  <Rbt.Library>  (32) 
libRbt.so (25.07, Buildalpha)

>  <Rbt.Parameter_File>  (32) 
/tmp/claude-0/-home-user-Rare-cancers/1af35c7f-7dc4-53ce-91d2-1631a2a10a85/scratchpad/rdroot/share/rDock/data/scripts/dock.prm

>  <Rbt.Receptor>  (32) 
rec.prm

>  <SCORE>  (32) 
14.0072

>  <SCORE.INTER>  (32) 
12.1696

>  <SCORE.INTER.CONST>  (32) 
1

>  <SCORE.INTER.POLAR>  (32) 
-0.824621

>  <SCORE.INTER.REPUL>  (32) 
0.0987881

>  <SCORE.INTER.ROT>  (32) 
7

>  <SCORE.INTER.VDW>  (32) 
2.07933

>  <SCORE.INTER.norm>  (32) 
0.553162

>  <SCORE.INTRA>  (32) 
9.40129

>  <SCORE.INTRA.DIHEDRAL>  (32) 
12.1856

>  <SCORE.INTRA.DIHEDRAL.0>  (32) 
3.78927

>  <SCORE.INTRA.POLAR>  (32) 
0

>  <SCORE.INTRA.POLAR.0>  (32) 
0

>  <SCORE.INTRA.REPUL>  (32) 
0

>  <SCORE.INTRA.REPUL.0>  (32) 
0

>  <SCORE.INTRA.VDW>  (32) 
3.30849

>  <SCORE.INTRA.VDW.0>  (32) 
1.02728

>  <SCORE.INTRA.norm>  (32) 
0.427331

>  <SCORE.RESTR>  (32) 
0

>  <SCORE.RESTR.CAVITY>  (32) 
0

>  <SCORE.RESTR.norm>  (32) 
0

>  <SCORE.SYSTEM>  (32) 
-7.56365

>  <SCORE.SYSTEM.CONST>  (32) 
0

>  <SCORE.SYSTEM.DIHEDRAL>  (32) 
1.36362

>  <SCORE.SYSTEM.POLAR>  (32) 
-1.59888

>  <SCORE.SYSTEM.REPUL>  (32) 
0.0729462

>  <SCORE.SYSTEM.VDW>  (32) 
-3.174

>  <SCORE.SYSTEM.norm>  (32) 
-0.343802

>  <SCORE.heavy>  (32) 
22

>  <SCORE.norm>  (32) 
0.636691

$$$$
denovo_401
     RDKit          3D

 22 23  0  0  0  0  0  0  0  0999 V2000
  -10.9152    9.9097  -11.8679 C   0  0  0  0  0  0  0  0  0  0  0  0
  -11.3750   10.4235  -13.1109 O   0  0  0  0  0  0  0  0  0  0  0  0
  -10.3588   11.1732  -13.7806 C   0  0  0  0  0  0  0  0  0  0  0  0
  -10.6665   11.2596  -15.2915 C   0  0  2  0  0  0  0  0  0  0  0  0
   -9.3596   11.2829  -16.0767 C   0  0  0  0  0  0  0  0  0  0  0  0
   -9.3132   10.7311  -17.3659 C   0  0  0  0  0  0  0  0  0  0  0  0
   -8.1267   10.7394  -18.1013 C   0  0  0  0  0  0  0  0  0  0  0  0
   -6.9721   11.2977  -17.5579 C   0  0  0  0  0  0  0  0  0  0  0  0
   -7.0025   11.8480  -16.2787 C   0  0  0  0  0  0  0  0  0  0  0  0
   -8.1879   11.8406  -15.5412 C   0  0  0  0  0  0  0  0  0  0  0  0
  -11.5736   12.4639  -15.6513 C   0  0  2  0  0  0  0  0  0  0  0  0
  -10.9421   13.8374  -15.4016 C   0  0  0  0  0  0  0  0  0  0  0  0
  -12.1049   14.8044  -15.1583 C   0  0  0  0  0  0  0  0  0  0  0  0
  -13.3787   13.9563  -15.1119 C   0  0  2  0  0  0  0  0  0  0  0  0
  -14.4439   14.3846  -14.0878 C   0  0  0  0  0  0  0  0  0  0  0  0
  -14.6207   15.9135  -13.7925 C   0  0  0  0  0  0  0  0  0  0  0  0
  -13.4580   16.4092  -12.9087 C   0  0  0  0  0  0  0  0  0  0  0  0
  -14.5140   16.6339  -15.1607 C   0  0  0  0  0  0  0  0  0  0  0  0
  -15.9922   16.2413  -13.1221 C   0  0  1  0  0  0  0  0  0  0  0  0
  -17.1100   16.6459  -14.0837 C   0  0  0  0  0  0  0  0  0  0  0  0
  -16.4849   15.1183  -12.3892 O   0  0  0  0  0  0  0  0  0  0  0  0
  -12.8528   12.5465  -14.8117 C   0  0  0  0  0  0  0  0  0  0  0  0
  1  2  1  0
  2  3  1  0
  4  3  1  1
  4  5  1  0
  5  6  2  0
  6  7  1  0
  7  8  2  0
  8  9  1  0
  9 10  2  0
  4 11  1  0
 11 12  1  1
 12 13  1  0
 13 14  1  0
 14 15  1  1
 15 16  1  0
 16 17  1  0
 16 18  1  0
 16 19  1  0
 19 20  1  6
 19 21  1  0
 14 22  1  0
 10  5  1  0
 22 11  1  0
M  END
>  <CHROM.0>  (33) 
-175.02707122,-62.37902814,-61.52711709,-60.14040995,-175.56356748,-54.17943231
63.34795404,-30.75691890

>  <CHROM.1>  (33) 
158.71343103,-147.16335672,149.42573594,65.07618823,34.44848498,-75.25135733
-93.95699679,66.68978603,-11.92442751,13.20211321,-14.75668408,0.20019626
-0.64382012,2.38900653

>  <Name>  (33) 
denovo_401

>  <RI>  (33) 
3.94589e+08

>  <Rbt.Current_Directory>  (33) 
/tmp/claude-0/-home-user-Rare-cancers/1af35c7f-7dc4-53ce-91d2-1631a2a10a85/scratchpad/smwork/cross/dock_8XTT-model6

>  <Rbt.Executable>  (33) 
rbdock - v25.07-alpha

>  <Rbt.Library>  (33) 
libRbt.so (25.07, Buildalpha)

>  <Rbt.Parameter_File>  (33) 
/tmp/claude-0/-home-user-Rare-cancers/1af35c7f-7dc4-53ce-91d2-1631a2a10a85/scratchpad/rdroot/share/rDock/data/scripts/dock.prm

>  <Rbt.Receptor>  (33) 
rec.prm

>  <SCORE>  (33) 
15.6083

>  <SCORE.INTER>  (33) 
7.65633

>  <SCORE.INTER.CONST>  (33) 
1

>  <SCORE.INTER.POLAR>  (33) 
-0.951489

>  <SCORE.INTER.REPUL>  (33) 
0.00766955

>  <SCORE.INTER.ROT>  (33) 
7

>  <SCORE.INTER.VDW>  (33) 
-1.54695

>  <SCORE.INTER.norm>  (33) 
0.348015

>  <SCORE.INTRA>  (33) 
13.5216

>  <SCORE.INTRA.DIHEDRAL>  (33) 
10.3346

>  <SCORE.INTRA.DIHEDRAL.0>  (33) 
3.78927

>  <SCORE.INTRA.POLAR>  (33) 
0

>  <SCORE.INTRA.POLAR.0>  (33) 
0

>  <SCORE.INTRA.REPUL>  (33) 
0

>  <SCORE.INTRA.REPUL.0>  (33) 
0

>  <SCORE.INTRA.VDW>  (33) 
8.35433

>  <SCORE.INTRA.VDW.0>  (33) 
1.02728

>  <SCORE.INTRA.norm>  (33) 
0.61462

>  <SCORE.RESTR>  (33) 
0

>  <SCORE.RESTR.CAVITY>  (33) 
0

>  <SCORE.RESTR.norm>  (33) 
0

>  <SCORE.SYSTEM>  (33) 
-5.56966

>  <SCORE.SYSTEM.CONST>  (33) 
0

>  <SCORE.SYSTEM.DIHEDRAL>  (33) 
3.94285

>  <SCORE.SYSTEM.POLAR>  (33) 
-2.61144

>  <SCORE.SYSTEM.REPUL>  (33) 
0.00473802

>  <SCORE.SYSTEM.VDW>  (33) 
1.31412

>  <SCORE.SYSTEM.norm>  (33) 
-0.253167

>  <SCORE.heavy>  (33) 
22

>  <SCORE.norm>  (33) 
0.709468

$$$$
denovo_401
     RDKit          3D

 22 23  0  0  0  0  0  0  0  0999 V2000
  -15.4283   10.9242  -15.6762 C   0  0  0  0  0  0  0  0  0  0  0  0
  -14.5415   11.5794  -14.7791 O   0  0  0  0  0  0  0  0  0  0  0  0
  -13.6280   12.4345  -15.4702 C   0  0  0  0  0  0  0  0  0  0  0  0
  -12.8280   13.2880  -14.4620 C   0  0  2  0  0  0  0  0  0  0  0  0
  -13.4149   14.6943  -14.4070 C   0  0  0  0  0  0  0  0  0  0  0  0
  -13.4763   15.4682  -15.5759 C   0  0  0  0  0  0  0  0  0  0  0  0
  -14.0072   16.7589  -15.5477 C   0  0  0  0  0  0  0  0  0  0  0  0
  -14.4822   17.2928  -14.3522 C   0  0  0  0  0  0  0  0  0  0  0  0
  -14.4266   16.5370  -13.1835 C   0  0  0  0  0  0  0  0  0  0  0  0
  -13.8958   15.2460  -13.2091 C   0  0  0  0  0  0  0  0  0  0  0  0
  -11.3087   13.3120  -14.7686 C   0  0  2  0  0  0  0  0  0  0  0  0
  -10.9409   13.9028  -16.1336 C   0  0  0  0  0  0  0  0  0  0  0  0
   -9.6078   13.2615  -16.5315 C   0  0  0  0  0  0  0  0  0  0  0  0
   -9.3007   12.1963  -15.4756 C   0  0  2  0  0  0  0  0  0  0  0  0
   -8.6506   10.8993  -15.9873 C   0  0  0  0  0  0  0  0  0  0  0  0
   -7.3846   11.0123  -16.9042 C   0  0  0  0  0  0  0  0  0  0  0  0
   -6.1892   11.5278  -16.0771 C   0  0  0  0  0  0  0  0  0  0  0  0
   -7.0532    9.5697  -17.3643 C   0  0  0  0  0  0  0  0  0  0  0  0
   -7.6223   11.9276  -18.1465 C   0  0  1  0  0  0  0  0  0  0  0  0
   -6.4578   12.0047  -19.1344 C   0  0  0  0  0  0  0  0  0  0  0  0
   -8.7536   11.4858  -18.8987 O   0  0  0  0  0  0  0  0  0  0  0  0
  -10.6716   11.9204  -14.8441 C   0  0  0  0  0  0  0  0  0  0  0  0
  1  2  1  0
  2  3  1  0
  4  3  1  6
  4  5  1  0
  5  6  2  0
  6  7  1  0
  7  8  2  0
  8  9  1  0
  9 10  2  0
  4 11  1  0
 11 12  1  6
 12 13  1  0
 13 14  1  0
 14 15  1  6
 15 16  1  0
 16 17  1  0
 16 18  1  0
 16 19  1  0
 19 20  1  6
 19 21  1  0
 14 22  1  0
 10  5  1  0
 22 11  1  0
M  END
>  <CHROM.0>  (34) 
-59.25070871,176.51307875,75.98122817,57.54815287,-174.95766516,-55.15412701
63.21254285,-33.99252667

>  <CHROM.1>  (34) 
171.43026315,-101.26518867,-58.56121266,61.03582230,50.53731389,69.32867108
-175.96699581,52.20104684,-11.03649272,12.95876468,-15.83419150,2.62877969
0.35130780,0.13730973

>  <Name>  (34) 
denovo_401

>  <RI>  (34) 
3.94589e+08

>  <Rbt.Current_Directory>  (34) 
/tmp/claude-0/-home-user-Rare-cancers/1af35c7f-7dc4-53ce-91d2-1631a2a10a85/scratchpad/smwork/cross/dock_8XTT-model6

>  <Rbt.Executable>  (34) 
rbdock - v25.07-alpha

>  <Rbt.Library>  (34) 
libRbt.so (25.07, Buildalpha)

>  <Rbt.Parameter_File>  (34) 
/tmp/claude-0/-home-user-Rare-cancers/1af35c7f-7dc4-53ce-91d2-1631a2a10a85/scratchpad/rdroot/share/rDock/data/scripts/dock.prm

>  <Rbt.Receptor>  (34) 
rec.prm

>  <SCORE>  (34) 
15.6900

>  <SCORE.INTER>  (34) 
15.4927

>  <SCORE.INTER.CONST>  (34) 
1

>  <SCORE.INTER.POLAR>  (34) 
-0.534264

>  <SCORE.INTER.REPUL>  (34) 
0.00579047

>  <SCORE.INTER.ROT>  (34) 
7

>  <SCORE.INTER.VDW>  (34) 
4.88026

>  <SCORE.INTER.norm>  (34) 
0.704214

>  <SCORE.INTRA>  (34) 
3.80421

>  <SCORE.INTRA.DIHEDRAL>  (34) 
2.48989

>  <SCORE.INTRA.DIHEDRAL.0>  (34) 
3.78927

>  <SCORE.INTRA.POLAR>  (34) 
0

>  <SCORE.INTRA.POLAR.0>  (34) 
0

>  <SCORE.INTRA.REPUL>  (34) 
0

>  <SCORE.INTRA.REPUL.0>  (34) 
0

>  <SCORE.INTRA.VDW>  (34) 
2.55927

>  <SCORE.INTRA.VDW.0>  (34) 
1.02728

>  <SCORE.INTRA.norm>  (34) 
0.172919

>  <SCORE.RESTR>  (34) 
0.372438

>  <SCORE.RESTR.CAVITY>  (34) 
0.372438

>  <SCORE.RESTR.norm>  (34) 
0.016929

>  <SCORE.SYSTEM>  (34) 
-3.97935

>  <SCORE.SYSTEM.CONST>  (34) 
0

>  <SCORE.SYSTEM.DIHEDRAL>  (34) 
4.41814

>  <SCORE.SYSTEM.POLAR>  (34) 
-1.59233

>  <SCORE.SYSTEM.REPUL>  (34) 
0.00469536

>  <SCORE.SYSTEM.VDW>  (34) 
-0.797959

>  <SCORE.SYSTEM.norm>  (34) 
-0.180879

>  <SCORE.heavy>  (34) 
22

>  <SCORE.norm>  (34) 
0.713183

$$$$
denovo_401
     RDKit          3D

 22 23  0  0  0  0  0  0  0  0999 V2000
  -15.1892   11.1207  -15.9828 C   0  0  0  0  0  0  0  0  0  0  0  0
  -14.2450   11.6749  -15.0763 O   0  0  0  0  0  0  0  0  0  0  0  0
  -13.5653   12.7976  -15.6427 C   0  0  0  0  0  0  0  0  0  0  0  0
  -12.7901   13.5615  -14.5471 C   0  0  2  0  0  0  0  0  0  0  0  0
  -13.5573   14.8231  -14.1665 C   0  0  0  0  0  0  0  0  0  0  0  0
  -13.7358   15.8411  -15.1155 C   0  0  0  0  0  0  0  0  0  0  0  0
  -14.4325   17.0055  -14.7877 C   0  0  0  0  0  0  0  0  0  0  0  0
  -14.9583   17.1680  -13.5082 C   0  0  0  0  0  0  0  0  0  0  0  0
  -14.7879   16.1666  -12.5551 C   0  0  0  0  0  0  0  0  0  0  0  0
  -14.0913   15.0013  -12.8805 C   0  0  0  0  0  0  0  0  0  0  0  0
  -11.3294   13.8798  -14.9566 C   0  0  2  0  0  0  0  0  0  0  0  0
  -11.1484   14.2730  -16.4264 C   0  0  0  0  0  0  0  0  0  0  0  0
   -9.7103   13.8960  -16.7956 C   0  0  0  0  0  0  0  0  0  0  0  0
   -9.1297   13.1488  -15.5919 C   0  0  2  0  0  0  0  0  0  0  0  0
   -8.1989   11.9660  -15.9103 C   0  0  0  0  0  0  0  0  0  0  0  0
   -8.6996   10.8744  -16.9172 C   0  0  0  0  0  0  0  0  0  0  0  0
   -7.5696    9.8598  -17.1867 C   0  0  0  0  0  0  0  0  0  0  0  0
   -9.8499   10.1210  -16.2020 C   0  0  0  0  0  0  0  0  0  0  0  0
   -9.2143   11.4852  -18.2587 C   0  0  1  0  0  0  0  0  0  0  0  0
   -8.1404   12.1204  -19.1426 C   0  0  0  0  0  0  0  0  0  0  0  0
   -9.8538   10.4914  -19.0615 O   0  0  0  0  0  0  0  0  0  0  0  0
  -10.3778   12.6855  -14.8291 C   0  0  0  0  0  0  0  0  0  0  0  0
  1  2  1  0
  2  3  1  0
  4  3  1  6
  4  5  1  0
  5  6  2  0
  6  7  1  0
  7  8  2  0
  8  9  1  0
  9 10  2  0
  4 11  1  0
 11 12  1  6
 12 13  1  0
 13 14  1  0
 14 15  1  6
 15 16  1  0
 16 17  1  0
 16 18  1  0
 16 19  1  0
 19 20  1  6
 19 21  1  0
 14 22  1  0
 10  5  1  0
 22 11  1  0
M  END
>  <CHROM.0>  (35) 
19.16891091,-63.07271091,-71.50352452,-69.08268531,-176.62546251,63.97609530
-74.34473722,69.16107889

>  <CHROM.1>  (35) 
167.42202622,-102.81651079,-64.67569763,38.47338280,-51.04075535,174.90236925
68.41647009,-57.73000777,-11.52332922,13.06611843,-15.78703143,2.40466975
0.29893664,0.37850229

>  <Name>  (35) 
denovo_401

>  <RI>  (35) 
3.94589e+08

>  <Rbt.Current_Directory>  (35) 
/tmp/claude-0/-home-user-Rare-cancers/1af35c7f-7dc4-53ce-91d2-1631a2a10a85/scratchpad/smwork/cross/dock_8XTT-model6

>  <Rbt.Executable>  (35) 
rbdock - v25.07-alpha

>  <Rbt.Library>  (35) 
libRbt.so (25.07, Buildalpha)

>  <Rbt.Parameter_File>  (35) 
/tmp/claude-0/-home-user-Rare-cancers/1af35c7f-7dc4-53ce-91d2-1631a2a10a85/scratchpad/rdroot/share/rDock/data/scripts/dock.prm

>  <Rbt.Receptor>  (35) 
rec.prm

>  <SCORE>  (35) 
17.5839

>  <SCORE.INTER>  (35) 
12.3662

>  <SCORE.INTER.CONST>  (35) 
1

>  <SCORE.INTER.POLAR>  (35) 
-1.88223

>  <SCORE.INTER.REPUL>  (35) 
0

>  <SCORE.INTER.ROT>  (35) 
7

>  <SCORE.INTER.VDW>  (35) 
6.36577

>  <SCORE.INTER.norm>  (35) 
0.5621

>  <SCORE.INTRA>  (35) 
6.50185

>  <SCORE.INTRA.DIHEDRAL>  (35) 
4.55462

>  <SCORE.INTRA.DIHEDRAL.0>  (35) 
3.78927

>  <SCORE.INTRA.POLAR>  (35) 
0

>  <SCORE.INTRA.POLAR.0>  (35) 
0

>  <SCORE.INTRA.REPUL>  (35) 
0

>  <SCORE.INTRA.REPUL.0>  (35) 
0

>  <SCORE.INTRA.VDW>  (35) 
4.22454

>  <SCORE.INTRA.VDW.0>  (35) 
1.02728

>  <SCORE.INTRA.norm>  (35) 
0.295539

>  <SCORE.RESTR>  (35) 
0.111179

>  <SCORE.RESTR.CAVITY>  (35) 
0.111179

>  <SCORE.RESTR.norm>  (35) 
0.00505361

>  <SCORE.SYSTEM>  (35) 
-1.39536

>  <SCORE.SYSTEM.CONST>  (35) 
0

>  <SCORE.SYSTEM.DIHEDRAL>  (35) 
7.92683

>  <SCORE.SYSTEM.POLAR>  (35) 
-1.99627

>  <SCORE.SYSTEM.REPUL>  (35) 
0.0696452

>  <SCORE.SYSTEM.VDW>  (35) 
1.08031

>  <SCORE.SYSTEM.norm>  (35) 
-0.0634254

>  <SCORE.heavy>  (35) 
22

>  <SCORE.norm>  (35) 
0.799267

$$$$
denovo_401
     RDKit          3D

 22 23  0  0  0  0  0  0  0  0999 V2000
   -7.5298   10.1240  -17.1947 C   0  0  0  0  0  0  0  0  0  0  0  0
   -7.9901   10.9685  -16.1481 O   0  0  0  0  0  0  0  0  0  0  0  0
   -9.2380   11.5836  -16.4763 C   0  0  0  0  0  0  0  0  0  0  0  0
   -9.7425   12.4347  -15.2905 C   0  0  2  0  0  0  0  0  0  0  0  0
   -9.8582   11.5585  -14.0479 C   0  0  0  0  0  0  0  0  0  0  0  0
  -10.8706   10.5900  -13.9720 C   0  0  0  0  0  0  0  0  0  0  0  0
  -10.9963    9.7789  -12.8428 C   0  0  0  0  0  0  0  0  0  0  0  0
  -10.1136    9.9259  -11.7755 C   0  0  0  0  0  0  0  0  0  0  0  0
   -9.1044   10.8841  -11.8360 C   0  0  0  0  0  0  0  0  0  0  0  0
   -8.9768   11.6966  -12.9641 C   0  0  0  0  0  0  0  0  0  0  0  0
  -11.0722   13.1682  -15.6012 C   0  0  2  0  0  0  0  0  0  0  0  0
  -10.9625   14.2704  -16.6599 C   0  0  0  0  0  0  0  0  0  0  0  0
  -12.0871   15.2659  -16.3585 C   0  0  0  0  0  0  0  0  0  0  0  0
  -12.7304   14.8164  -15.0439 C   0  0  2  0  0  0  0  0  0  0  0  0
  -13.1742   15.9358  -14.0864 C   0  0  0  0  0  0  0  0  0  0  0  0
  -14.5731   15.8102  -13.3913 C   0  0  0  0  0  0  0  0  0  0  0  0
  -14.9053   14.3221  -13.1588 C   0  0  0  0  0  0  0  0  0  0  0  0
  -14.4287   16.4841  -12.0030 C   0  0  0  0  0  0  0  0  0  0  0  0
  -15.7124   16.5018  -14.2046 C   0  0  1  0  0  0  0  0  0  0  0  0
  -17.0660   16.5797  -13.4977 C   0  0  0  0  0  0  0  0  0  0  0  0
  -15.3598   17.8454  -14.5383 O   0  0  0  0  0  0  0  0  0  0  0  0
  -11.6494   13.9340  -14.4059 C   0  0  0  0  0  0  0  0  0  0  0  0
  1  2  1  0
  2  3  1  0
  4  3  1  6
  4  5  1  0
  5  6  2  0
  6  7  1  0
  7  8  2  0
  8  9  1  0
  9 10  2  0
  4 11  1  0
 11 12  1  6
 12 13  1  0
 13 14  1  0
 14 15  1  1
 15 16  1  0
 16 17  1  0
 16 18  1  0
 16 19  1  0
 19 20  1  1
 19 21  1  0
 14 22  1  0
 10  5  1  0
 22 11  1  0
M  END
>  <CHROM.0>  (36) 
-179.42005047,-64.73403948,62.83614877,59.40834294,30.00246295,57.79630949
-77.64036487,-32.93119225

>  <CHROM.1>  (36) 
177.10069192,-56.84759819,-70.85140815,-67.61048158,136.17671535,31.56500099
-172.20942507,-54.61883147,-11.78175392,13.45945037,-14.37328931,-0.26617286
0.70905706,-1.00003063

>  <Name>  (36) 
denovo_401

>  <RI>  (36) 
3.94589e+08

>  <Rbt.Current_Directory>  (36) 
/tmp/claude-0/-home-user-Rare-cancers/1af35c7f-7dc4-53ce-91d2-1631a2a10a85/scratchpad/smwork/cross/dock_8XTT-model6

>  <Rbt.Executable>  (36) 
rbdock - v25.07-alpha

>  <Rbt.Library>  (36) 
libRbt.so (25.07, Buildalpha)

>  <Rbt.Parameter_File>  (36) 
/tmp/claude-0/-home-user-Rare-cancers/1af35c7f-7dc4-53ce-91d2-1631a2a10a85/scratchpad/rdroot/share/rDock/data/scripts/dock.prm

>  <Rbt.Receptor>  (36) 
rec.prm

>  <SCORE>  (36) 
19.5670

>  <SCORE.INTER>  (36) 
14.3518

>  <SCORE.INTER.CONST>  (36) 
1

>  <SCORE.INTER.POLAR>  (36) 
0

>  <SCORE.INTER.REPUL>  (36) 
0

>  <SCORE.INTER.ROT>  (36) 
7

>  <SCORE.INTER.VDW>  (36) 
1.95183

>  <SCORE.INTER.norm>  (36) 
0.652356

>  <SCORE.INTRA>  (36) 
5.12153

>  <SCORE.INTRA.DIHEDRAL>  (36) 
6.72812

>  <SCORE.INTRA.DIHEDRAL.0>  (36) 
3.78927

>  <SCORE.INTRA.POLAR>  (36) 
0

>  <SCORE.INTRA.POLAR.0>  (36) 
0

>  <SCORE.INTRA.REPUL>  (36) 
0

>  <SCORE.INTRA.REPUL.0>  (36) 
0

>  <SCORE.INTRA.VDW>  (36) 
1.75747

>  <SCORE.INTRA.VDW.0>  (36) 
1.02728

>  <SCORE.INTRA.norm>  (36) 
0.232797

>  <SCORE.RESTR>  (36) 
0

>  <SCORE.RESTR.CAVITY>  (36) 
0

>  <SCORE.RESTR.norm>  (36) 
0

>  <SCORE.SYSTEM>  (36) 
0.0935924

>  <SCORE.SYSTEM.CONST>  (36) 
0

>  <SCORE.SYSTEM.DIHEDRAL>  (36) 
8.26215

>  <SCORE.SYSTEM.POLAR>  (36) 
-2.83435

>  <SCORE.SYSTEM.REPUL>  (36) 
0.00693589

>  <SCORE.SYSTEM.VDW>  (36) 
5.56462

>  <SCORE.SYSTEM.norm>  (36) 
0.0042542

>  <SCORE.heavy>  (36) 
22

>  <SCORE.norm>  (36) 
0.889407

$$$$
denovo_401
     RDKit          3D

 22 23  0  0  0  0  0  0  0  0999 V2000
   -7.3767   10.5137  -17.2491 C   0  0  0  0  0  0  0  0  0  0  0  0
   -7.9238   11.2458  -16.1604 O   0  0  0  0  0  0  0  0  0  0  0  0
   -9.2157   11.7712  -16.4735 C   0  0  0  0  0  0  0  0  0  0  0  0
   -9.7753   12.5649  -15.2727 C   0  0  2  0  0  0  0  0  0  0  0  0
   -9.8840   11.6456  -14.0611 C   0  0  0  0  0  0  0  0  0  0  0  0
   -8.9741   11.7813  -13.0016 C   0  0  0  0  0  0  0  0  0  0  0  0
   -9.0538   10.9486  -11.8840 C   0  0  0  0  0  0  0  0  0  0  0  0
  -10.0421    9.9699  -11.8113 C   0  0  0  0  0  0  0  0  0  0  0  0
  -10.9516    9.8225  -12.8560 C   0  0  0  0  0  0  0  0  0  0  0  0
  -10.8737   10.6538  -13.9748 C   0  0  0  0  0  0  0  0  0  0  0  0
  -11.1244   13.2596  -15.5888 C   0  0  2  0  0  0  0  0  0  0  0  0
  -11.0355   14.3909  -16.6184 C   0  0  0  0  0  0  0  0  0  0  0  0
  -12.1990   15.3392  -16.3127 C   0  0  0  0  0  0  0  0  0  0  0  0
  -12.8482   14.8353  -15.0209 C   0  0  2  0  0  0  0  0  0  0  0  0
  -13.3466   15.9146  -14.0445 C   0  0  0  0  0  0  0  0  0  0  0  0
  -14.4691   15.5311  -13.0202 C   0  0  0  0  0  0  0  0  0  0  0  0
  -14.8654   14.0532  -13.2139 C   0  0  0  0  0  0  0  0  0  0  0  0
  -13.8358   15.6694  -11.6123 C   0  0  0  0  0  0  0  0  0  0  0  0
  -15.7255   16.4511  -13.1333 C   0  0  1  0  0  0  0  0  0  0  0  0
  -15.8867   17.1765  -14.4696 C   0  0  0  0  0  0  0  0  0  0  0  0
  -16.9269   15.7027  -12.9394 O   0  0  0  0  0  0  0  0  0  0  0  0
  -11.7478   13.9751  -14.3857 C   0  0  0  0  0  0  0  0  0  0  0  0
  1  2  1  0
  2  3  1  0
  4  3  1  6
  4  5  1  0
  5  6  2  0
  6  7  1  0
  7  8  2  0
  8  9  1  0
  9 10  2  0
  4 11  1  0
 11 12  1  6
 12 13  1  0
 13 14  1  0
 14 15  1  1
 15 16  1  0
 16 17  1  0
 16 18  1  0
 16 19  1  0
 19 20  1  6
 19 21  1  0
 14 22  1  0
 10  5  1  0
 22 11  1  0
M  END
>  <CHROM.0>  (37) 
-59.85843036,-63.48204155,66.54884589,-60.82891403,30.78839328,58.15144112
-72.17219744,-34.01240370

>  <CHROM.1>  (37) 
-179.71685945,-59.66194168,106.78476420,-67.12912763,156.83420289,0.12754673
21.48003357,-174.48508866,-11.79103393,13.38184225,-14.25865175,-0.18117017
0.66298318,-0.99982102

>  <Name>  (37) 
denovo_401

>  <RI>  (37) 
3.94589e+08

>  <Rbt.Current_Directory>  (37) 
/tmp/claude-0/-home-user-Rare-cancers/1af35c7f-7dc4-53ce-91d2-1631a2a10a85/scratchpad/smwork/cross/dock_8XTT-model6

>  <Rbt.Executable>  (37) 
rbdock - v25.07-alpha

>  <Rbt.Library>  (37) 
libRbt.so (25.07, Buildalpha)

>  <Rbt.Parameter_File>  (37) 
/tmp/claude-0/-home-user-Rare-cancers/1af35c7f-7dc4-53ce-91d2-1631a2a10a85/scratchpad/rdroot/share/rDock/data/scripts/dock.prm

>  <Rbt.Receptor>  (37) 
rec.prm

>  <SCORE>  (37) 
22.4047

>  <SCORE.INTER>  (37) 
12.5998

>  <SCORE.INTER.CONST>  (37) 
1

>  <SCORE.INTER.POLAR>  (37) 
-0.36395

>  <SCORE.INTER.REPUL>  (37) 
0

>  <SCORE.INTER.ROT>  (37) 
7

>  <SCORE.INTER.VDW>  (37) 
1.43722

>  <SCORE.INTER.norm>  (37) 
0.572717

>  <SCORE.INTRA>  (37) 
10.6547

>  <SCORE.INTRA.DIHEDRAL>  (37) 
11.0486

>  <SCORE.INTRA.DIHEDRAL.0>  (37) 
3.78927

>  <SCORE.INTRA.POLAR>  (37) 
0

>  <SCORE.INTRA.POLAR.0>  (37) 
0

>  <SCORE.INTRA.REPUL>  (37) 
0

>  <SCORE.INTRA.REPUL.0>  (37) 
0

>  <SCORE.INTRA.VDW>  (37) 
5.13043

>  <SCORE.INTRA.VDW.0>  (37) 
1.02728

>  <SCORE.INTRA.norm>  (37) 
0.484306

>  <SCORE.RESTR>  (37) 
0.00862725

>  <SCORE.RESTR.CAVITY>  (37) 
0.00862725

>  <SCORE.RESTR.norm>  (37) 
0.000392148

>  <SCORE.SYSTEM>  (37) 
-0.858401

>  <SCORE.SYSTEM.CONST>  (37) 
0

>  <SCORE.SYSTEM.DIHEDRAL>  (37) 
7.30281

>  <SCORE.SYSTEM.POLAR>  (37) 
-2.85003

>  <SCORE.SYSTEM.REPUL>  (37) 
0.0089569

>  <SCORE.SYSTEM.VDW>  (37) 
5.1355

>  <SCORE.SYSTEM.norm>  (37) 
-0.0390182

>  <SCORE.heavy>  (37) 
22

>  <SCORE.norm>  (37) 
1.0184

$$$$
denovo_401
     RDKit          3D

 22 23  0  0  0  0  0  0  0  0999 V2000
   -7.1480   12.6531  -12.1541 C   0  0  0  0  0  0  0  0  0  0  0  0
   -7.9913   12.0610  -13.1332 O   0  0  0  0  0  0  0  0  0  0  0  0
   -7.3482   11.9847  -14.4075 C   0  0  0  0  0  0  0  0  0  0  0  0
   -8.1832   11.1194  -15.3766 C   0  0  2  0  0  0  0  0  0  0  0  0
   -7.2665   10.5044  -16.4285 C   0  0  0  0  0  0  0  0  0  0  0  0
   -7.7006    9.3906  -17.1634 C   0  0  0  0  0  0  0  0  0  0  0  0
   -6.8767    8.8102  -18.1293 C   0  0  0  0  0  0  0  0  0  0  0  0
   -5.6092    9.3341  -18.3723 C   0  0  0  0  0  0  0  0  0  0  0  0
   -5.1641   10.4386  -17.6497 C   0  0  0  0  0  0  0  0  0  0  0  0
   -5.9861   11.0206  -16.6830 C   0  0  0  0  0  0  0  0  0  0  0  0
   -9.3542   11.9026  -16.0232 C   0  0  2  0  0  0  0  0  0  0  0  0
   -8.9284   13.1088  -16.8666 C   0  0  0  0  0  0  0  0  0  0  0  0
  -10.1092   14.0844  -16.8436 C   0  0  0  0  0  0  0  0  0  0  0  0
  -11.1354   13.5084  -15.8643 C   0  0  2  0  0  0  0  0  0  0  0  0
  -11.8876   14.5270  -14.9905 C   0  0  0  0  0  0  0  0  0  0  0  0
  -13.1285   15.2617  -15.6041 C   0  0  0  0  0  0  0  0  0  0  0  0
  -12.6527   16.3582  -16.5788 C   0  0  0  0  0  0  0  0  0  0  0  0
  -13.8971   14.1981  -16.4289 C   0  0  0  0  0  0  0  0  0  0  0  0
  -14.0654   15.8714  -14.5139 C   0  0  1  0  0  0  0  0  0  0  0  0
  -14.5877   14.8813  -13.4725 C   0  0  0  0  0  0  0  0  0  0  0  0
  -13.3977   16.9019  -13.7836 O   0  0  0  0  0  0  0  0  0  0  0  0
  -10.3028   12.5465  -15.0065 C   0  0  0  0  0  0  0  0  0  0  0  0
  1  2  1  0
  2  3  1  0
  4  3  1  1
  4  5  1  0
  5  6  2  0
  6  7  1  0
  7  8  2  0
  8  9  1  0
  9 10  2  0
  4 11  1  0
 11 12  1  6
 12 13  1  0
 13 14  1  0
 14 15  1  1
 15 16  1  0
 16 17  1  0
 16 18  1  0
 16 19  1  0
 19 20  1  1
 19 21  1  0
 14 22  1  0
 10  5  1  0
 22 11  1  0
M  END
>  <CHROM.0>  (38) 
-62.15933261,61.74799632,-58.29009537,56.63531212,-29.64991629,-53.28242988
63.48637087,-179.12570496

>  <CHROM.1>  (38) 
169.98975043,-153.50241065,161.21789030,60.89692270,82.27485796,-76.10808044
-56.18180619,176.38620159,-9.76453286,12.85188135,-15.61991590,-0.39703654
-0.57056198,1.25473946

>  <Name>  (38) 
denovo_401

>  <RI>  (38) 
3.94589e+08

>  <Rbt.Current_Directory>  (38) 
/tmp/claude-0/-home-user-Rare-cancers/1af35c7f-7dc4-53ce-91d2-1631a2a10a85/scratchpad/smwork/cross/dock_8XTT-model6

>  <Rbt.Executable>  (38) 
rbdock - v25.07-alpha

>  <Rbt.Library>  (38) 
libRbt.so (25.07, Buildalpha)

>  <Rbt.Parameter_File>  (38) 
/tmp/claude-0/-home-user-Rare-cancers/1af35c7f-7dc4-53ce-91d2-1631a2a10a85/scratchpad/rdroot/share/rDock/data/scripts/dock.prm

>  <Rbt.Receptor>  (38) 
rec.prm

>  <SCORE>  (38) 
24.0507

>  <SCORE.INTER>  (38) 
20.686

>  <SCORE.INTER.CONST>  (38) 
1

>  <SCORE.INTER.POLAR>  (38) 
0

>  <SCORE.INTER.REPUL>  (38) 
0.175877

>  <SCORE.INTER.ROT>  (38) 
7

>  <SCORE.INTER.VDW>  (38) 
7.4066

>  <SCORE.INTER.norm>  (38) 
0.940272

>  <SCORE.INTRA>  (38) 
4.86497

>  <SCORE.INTRA.DIHEDRAL>  (38) 
3.33528

>  <SCORE.INTRA.DIHEDRAL.0>  (38) 
3.78927

>  <SCORE.INTRA.POLAR>  (38) 
0

>  <SCORE.INTRA.POLAR.0>  (38) 
0

>  <SCORE.INTRA.REPUL>  (38) 
0

>  <SCORE.INTRA.REPUL.0>  (38) 
0

>  <SCORE.INTRA.VDW>  (38) 
3.19733

>  <SCORE.INTRA.VDW.0>  (38) 
1.02728

>  <SCORE.INTRA.norm>  (38) 
0.221135

>  <SCORE.RESTR>  (38) 
0.674722

>  <SCORE.RESTR.CAVITY>  (38) 
0.674722

>  <SCORE.RESTR.norm>  (38) 
0.0306692

>  <SCORE.SYSTEM>  (38) 
-2.17501

>  <SCORE.SYSTEM.CONST>  (38) 
0

>  <SCORE.SYSTEM.DIHEDRAL>  (38) 
4.03938

>  <SCORE.SYSTEM.POLAR>  (38) 
-1.53821

>  <SCORE.SYSTEM.REPUL>  (38) 
0.078043

>  <SCORE.SYSTEM.VDW>  (38) 
0.644997

>  <SCORE.SYSTEM.norm>  (38) 
-0.0988642

>  <SCORE.heavy>  (38) 
22

>  <SCORE.norm>  (38) 
1.09321

$$$$
denovo_401
     RDKit          3D

 22 23  0  0  0  0  0  0  0  0999 V2000
   -9.9996    9.2060  -12.3960 C   0  0  0  0  0  0  0  0  0  0  0  0
  -10.0244    9.5385  -13.7778 O   0  0  0  0  0  0  0  0  0  0  0  0
  -10.3653   10.9112  -13.9845 C   0  0  0  0  0  0  0  0  0  0  0  0
  -10.6686   11.1677  -15.4769 C   0  0  2  0  0  0  0  0  0  0  0  0
   -9.3593   11.2841  -16.2497 C   0  0  0  0  0  0  0  0  0  0  0  0
   -8.2231   11.8111  -15.6171 C   0  0  0  0  0  0  0  0  0  0  0  0
   -7.0151   11.9292  -16.3065 C   0  0  0  0  0  0  0  0  0  0  0  0
   -6.9272   11.5235  -17.6360 C   0  0  0  0  0  0  0  0  0  0  0  0
   -8.0470   10.9997  -18.2777 C   0  0  0  0  0  0  0  0  0  0  0  0
   -9.2563   10.8809  -17.5904 C   0  0  0  0  0  0  0  0  0  0  0  0
  -11.5788   12.4022  -15.7007 C   0  0  2  0  0  0  0  0  0  0  0  0
  -10.9417   13.7435  -15.3228 C   0  0  0  0  0  0  0  0  0  0  0  0
  -12.0996   14.6812  -14.9670 C   0  0  0  0  0  0  0  0  0  0  0  0
  -13.3739   13.8329  -14.9885 C   0  0  2  0  0  0  0  0  0  0  0  0
  -14.4241   14.1560  -13.9117 C   0  0  0  0  0  0  0  0  0  0  0  0
  -14.7256   15.6606  -13.5932 C   0  0  0  0  0  0  0  0  0  0  0  0
  -15.9719   15.7601  -12.6902 C   0  0  0  0  0  0  0  0  0  0  0  0
  -13.5122   16.1829  -12.7824 C   0  0  0  0  0  0  0  0  0  0  0  0
  -14.9169   16.5209  -14.8820 C   0  0  1  0  0  0  0  0  0  0  0  0
  -15.2997   17.9816  -14.6423 C   0  0  0  0  0  0  0  0  0  0  0  0
  -13.7206   16.5460  -15.6627 O   0  0  0  0  0  0  0  0  0  0  0  0
  -12.8460   12.3999  -14.8393 C   0  0  0  0  0  0  0  0  0  0  0  0
  1  2  1  0
  2  3  1  0
  4  3  1  1
  4  5  1  0
  5  6  2  0
  6  7  1  0
  7  8  2  0
  8  9  1  0
  9 10  2  0
  4 11  1  0
 11 12  1  1
 12 13  1  0
 13 14  1  0
 14 15  1  1
 15 16  1  0
 16 17  1  0
 16 18  1  0
 16 19  1  0
 19 20  1  1
 19 21  1  0
 14 22  1  0
 10  5  1  0
 22 11  1  0
M  END
>  <CHROM.0>  (39) 
-179.66042425,-62.07065530,-52.50766205,179.03101358,-25.31257558,60.25365477
60.56392314,64.71409293

>  <CHROM.1>  (39) 
-168.33092366,-78.67339918,-31.55340207,66.33767853,42.20111928,169.65594365
176.37264546,168.28892046,-11.59313069,13.19425871,-14.99937120,0.35158124
-0.67912479,2.44322398

>  <Name>  (39) 
denovo_401

>  <RI>  (39) 
3.94589e+08

>  <Rbt.Current_Directory>  (39) 
/tmp/claude-0/-home-user-Rare-cancers/1af35c7f-7dc4-53ce-91d2-1631a2a10a85/scratchpad/smwork/cross/dock_8XTT-model6

>  <Rbt.Executable>  (39) 
rbdock - v25.07-alpha

>  <Rbt.Library>  (39) 
libRbt.so (25.07, Buildalpha)

>  <Rbt.Parameter_File>  (39) 
/tmp/claude-0/-home-user-Rare-cancers/1af35c7f-7dc4-53ce-91d2-1631a2a10a85/scratchpad/rdroot/share/rDock/data/scripts/dock.prm

>  <Rbt.Receptor>  (39) 
rec.prm

>  <SCORE>  (39) 
24.1345

>  <SCORE.INTER>  (39) 
18.7852

>  <SCORE.INTER.CONST>  (39) 
1

>  <SCORE.INTER.POLAR>  (39) 
-0.254236

>  <SCORE.INTER.REPUL>  (39) 
0

>  <SCORE.INTER.ROT>  (39) 
7

>  <SCORE.INTER.VDW>  (39) 
7.24961

>  <SCORE.INTER.norm>  (39) 
0.853873

>  <SCORE.INTRA>  (39) 
7.21322

>  <SCORE.INTRA.DIHEDRAL>  (39) 
1.95952

>  <SCORE.INTRA.DIHEDRAL.0>  (39) 
3.78927

>  <SCORE.INTRA.POLAR>  (39) 
0

>  <SCORE.INTRA.POLAR.0>  (39) 
0

>  <SCORE.INTRA.REPUL>  (39) 
0

>  <SCORE.INTRA.REPUL.0>  (39) 
0

>  <SCORE.INTRA.VDW>  (39) 
6.23346

>  <SCORE.INTRA.VDW.0>  (39) 
1.02728

>  <SCORE.INTRA.norm>  (39) 
0.327874

>  <SCORE.RESTR>  (39) 
0

>  <SCORE.RESTR.CAVITY>  (39) 
0

>  <SCORE.RESTR.norm>  (39) 
0

>  <SCORE.SYSTEM>  (39) 
-1.86391

>  <SCORE.SYSTEM.CONST>  (39) 
0

>  <SCORE.SYSTEM.DIHEDRAL>  (39) 
4.89084

>  <SCORE.SYSTEM.POLAR>  (39) 
-2.19644

>  <SCORE.SYSTEM.REPUL>  (39) 
0.0290386

>  <SCORE.SYSTEM.VDW>  (39) 
3.01338

>  <SCORE.SYSTEM.norm>  (39) 
-0.084723

>  <SCORE.heavy>  (39) 
22

>  <SCORE.norm>  (39) 
1.09702

$$$$
denovo_401
     RDKit          3D

 22 23  0  0  0  0  0  0  0  0999 V2000
   -7.5386    9.1733  -17.6925 C   0  0  0  0  0  0  0  0  0  0  0  0
   -8.0289   10.3386  -17.0427 O   0  0  0  0  0  0  0  0  0  0  0  0
   -8.8362   10.0110  -15.9095 C   0  0  0  0  0  0  0  0  0  0  0  0
   -9.1732   11.2866  -15.1068 C   0  0  2  0  0  0  0  0  0  0  0  0
   -9.5540   10.9047  -13.6805 C   0  0  0  0  0  0  0  0  0  0  0  0
  -10.6850   10.1059  -13.4531 C   0  0  0  0  0  0  0  0  0  0  0  0
  -11.0532    9.7466  -12.1554 C   0  0  0  0  0  0  0  0  0  0  0  0
  -10.2974   10.1814  -11.0692 C   0  0  0  0  0  0  0  0  0  0  0  0
   -9.1729   10.9760  -11.2793 C   0  0  0  0  0  0  0  0  0  0  0  0
   -8.8028   11.3369  -12.5762 C   0  0  0  0  0  0  0  0  0  0  0  0
  -10.2703   12.1484  -15.7823 C   0  0  2  0  0  0  0  0  0  0  0  0
   -9.7420   13.2147  -16.7475 C   0  0  0  0  0  0  0  0  0  0  0  0
  -10.7955   14.3264  -16.7742 C   0  0  0  0  0  0  0  0  0  0  0  0
  -11.8379   13.9688  -15.7113 C   0  0  2  0  0  0  0  0  0  0  0  0
  -12.4228   15.1447  -14.9100 C   0  0  0  0  0  0  0  0  0  0  0  0
  -13.9003   15.0358  -14.3989 C   0  0  0  0  0  0  0  0  0  0  0  0
  -14.5368   13.7333  -14.9253 C   0  0  0  0  0  0  0  0  0  0  0  0
  -13.8175   14.9302  -12.8547 C   0  0  0  0  0  0  0  0  0  0  0  0
  -14.7686   16.2686  -14.8040 C   0  0  1  0  0  0  0  0  0  0  0  0
  -14.6793   17.4693  -13.8616 C   0  0  0  0  0  0  0  0  0  0  0  0
  -14.4014   16.7501  -16.0979 O   0  0  0  0  0  0  0  0  0  0  0  0
  -11.0883   12.9904  -14.7975 C   0  0  0  0  0  0  0  0  0  0  0  0
  1  2  1  0
  2  3  1  0
  4  3  1  6
  4  5  1  0
  5  6  2  0
  6  7  1  0
  7  8  2  0
  8  9  1  0
  9 10  2  0
  4 11  1  0
 11 12  1  6
 12 13  1  0
 13 14  1  0
 14 15  1  1
 15 16  1  0
 16 17  1  0
 16 18  1  0
 16 19  1  0
 19 20  1  1
 19 21  1  0
 14 22  1  0
 10  5  1  0
 22 11  1  0
M  END
>  <CHROM.0>  (40) 
-60.88621764,-59.86189454,-62.38074431,177.81750730,28.30799678,-57.54851878
-70.59620984,64.60172566

>  <CHROM.1>  (40) 
171.44655990,-158.78590715,-62.70747878,-90.71974979,148.70887221,-4.34431078
-84.96763948,48.37715607,-11.19254570,12.79015314,-14.69416555,-0.28778024
0.78697822,-1.16403739

>  <Name>  (40) 
denovo_401

>  <RI>  (40) 
3.94589e+08

>  <Rbt.Current_Directory>  (40) 
/tmp/claude-0/-home-user-Rare-cancers/1af35c7f-7dc4-53ce-91d2-1631a2a10a85/scratchpad/smwork/cross/dock_8XTT-model6

>  <Rbt.Executable>  (40) 
rbdock - v25.07-alpha

>  <Rbt.Library>  (40) 
libRbt.so (25.07, Buildalpha)

>  <Rbt.Parameter_File>  (40) 
/tmp/claude-0/-home-user-Rare-cancers/1af35c7f-7dc4-53ce-91d2-1631a2a10a85/scratchpad/rdroot/share/rDock/data/scripts/dock.prm

>  <Rbt.Receptor>  (40) 
rec.prm

>  <SCORE>  (40) 
26.3224

>  <SCORE.INTER>  (40) 
16.6569

>  <SCORE.INTER.CONST>  (40) 
1

>  <SCORE.INTER.POLAR>  (40) 
0

>  <SCORE.INTER.REPUL>  (40) 
0

>  <SCORE.INTER.ROT>  (40) 
7

>  <SCORE.INTER.VDW>  (40) 
4.25693

>  <SCORE.INTER.norm>  (40) 
0.757133

>  <SCORE.INTRA>  (40) 
11.8821

>  <SCORE.INTRA.DIHEDRAL>  (40) 
15.2216

>  <SCORE.INTRA.DIHEDRAL.0>  (40) 
3.78927

>  <SCORE.INTRA.POLAR>  (40) 
0

>  <SCORE.INTRA.POLAR.0>  (40) 
0

>  <SCORE.INTRA.REPUL>  (40) 
0

>  <SCORE.INTRA.REPUL.0>  (40) 
0

>  <SCORE.INTRA.VDW>  (40) 
4.27129

>  <SCORE.INTRA.VDW.0>  (40) 
1.02728

>  <SCORE.INTRA.norm>  (40) 
0.540096

>  <SCORE.RESTR>  (40) 
0.0925354

>  <SCORE.RESTR.CAVITY>  (40) 
0.0925354

>  <SCORE.RESTR.norm>  (40) 
0.00420616

>  <SCORE.SYSTEM>  (40) 
-2.30922

>  <SCORE.SYSTEM.CONST>  (40) 
0

>  <SCORE.SYSTEM.DIHEDRAL>  (40) 
4.64416

>  <SCORE.SYSTEM.POLAR>  (40) 
-2.74406

>  <SCORE.SYSTEM.VDW>  (40) 
4.69852

>  <SCORE.SYSTEM.norm>  (40) 
-0.104964

>  <SCORE.heavy>  (40) 
22

>  <SCORE.norm>  (40) 
1.19647

$$$$
denovo_401
     RDKit          3D

 22 23  0  0  0  0  0  0  0  0999 V2000
   -7.5678   10.1929  -17.1795 C   0  0  0  0  0  0  0  0  0  0  0  0
   -8.0543   10.9935  -16.1105 O   0  0  0  0  0  0  0  0  0  0  0  0
   -9.3058   11.6034  -16.4349 C   0  0  0  0  0  0  0  0  0  0  0  0
   -9.8116   12.4501  -15.2465 C   0  0  2  0  0  0  0  0  0  0  0  0
   -9.9473   11.5651  -14.0123 C   0  0  0  0  0  0  0  0  0  0  0  0
   -9.0353   11.7022  -12.9548 C   0  0  0  0  0  0  0  0  0  0  0  0
   -9.1394   10.9006  -11.8167 C   0  0  0  0  0  0  0  0  0  0  0  0
  -10.1545    9.9517  -11.7213 C   0  0  0  0  0  0  0  0  0  0  0  0
  -11.0665    9.8032  -12.7636 C   0  0  0  0  0  0  0  0  0  0  0  0
  -10.9643   10.6036  -13.9029 C   0  0  0  0  0  0  0  0  0  0  0  0
  -11.1308   13.2001  -15.5626 C   0  0  2  0  0  0  0  0  0  0  0  0
  -11.0156   14.2616  -16.6615 C   0  0  0  0  0  0  0  0  0  0  0  0
  -12.1144   15.2907  -16.3784 C   0  0  0  0  0  0  0  0  0  0  0  0
  -12.7455   14.9016  -15.0389 C   0  0  2  0  0  0  0  0  0  0  0  0
  -13.1506   16.0632  -14.1151 C   0  0  0  0  0  0  0  0  0  0  0  0
  -14.4187   15.8884  -13.2109 C   0  0  0  0  0  0  0  0  0  0  0  0
  -14.3193   16.8265  -11.9908 C   0  0  0  0  0  0  0  0  0  0  0  0
  -15.6265   16.3510  -14.0651 C   0  0  0  0  0  0  0  0  0  0  0  0
  -14.6269   14.4121  -12.7472 C   0  0  1  0  0  0  0  0  0  0  0  0
  -15.8278   14.1780  -11.8300 C   0  0  0  0  0  0  0  0  0  0  0  0
  -14.8069   13.5443  -13.8677 O   0  0  0  0  0  0  0  0  0  0  0  0
  -11.6727   14.0196  -14.3866 C   0  0  0  0  0  0  0  0  0  0  0  0
  1  2  1  0
  2  3  1  0
  4  3  1  6
  4  5  1  0
  5  6  2  0
  6  7  1  0
  7  8  2  0
  8  9  1  0
  9 10  2  0
  4 11  1  0
 11 12  1  6
 12 13  1  0
 13 14  1  0
 14 15  1  1
 15 16  1  0
 16 17  1  0
 16 18  1  0
 16 19  1  0
 19 20  1  1
 19 21  1  0
 14 22  1  0
 10  5  1  0
 22 11  1  0
M  END
>  <CHROM.0>  (41) 
-58.21979614,65.45757981,-56.25083424,178.53326649,-29.52686603,60.09280357
-71.75554058,-34.23355732

>  <CHROM.1>  (41) 
179.31034804,-57.97705025,108.16050466,-64.68145417,146.30251197,156.08897333
178.45090173,-164.05681013,-11.70386533,13.15290157,-14.21158904,-0.20045869
0.68857254,-0.92373375

>  <Name>  (41) 
denovo_401

>  <RI>  (41) 
3.94589e+08

>  <Rbt.Current_Directory>  (41) 
/tmp/claude-0/-home-user-Rare-cancers/1af35c7f-7dc4-53ce-91d2-1631a2a10a85/scratchpad/smwork/cross/dock_8XTT-model6

>  <Rbt.Executable>  (41) 
rbdock - v25.07-alpha

>  <Rbt.Library>  (41) 
libRbt.so (25.07, Buildalpha)

>  <Rbt.Parameter_File>  (41) 
/tmp/claude-0/-home-user-Rare-cancers/1af35c7f-7dc4-53ce-91d2-1631a2a10a85/scratchpad/rdroot/share/rDock/data/scripts/dock.prm

>  <Rbt.Receptor>  (41) 
rec.prm

>  <SCORE>  (41) 
26.7024

>  <SCORE.INTER>  (41) 
24.4398

>  <SCORE.INTER.CONST>  (41) 
1

>  <SCORE.INTER.POLAR>  (41) 
0

>  <SCORE.INTER.REPUL>  (41) 
0

>  <SCORE.INTER.ROT>  (41) 
7

>  <SCORE.INTER.VDW>  (41) 
12.0398

>  <SCORE.INTER.norm>  (41) 
1.1109

>  <SCORE.INTRA>  (41) 
4.43078

>  <SCORE.INTRA.DIHEDRAL>  (41) 
5.11777

>  <SCORE.INTRA.DIHEDRAL.0>  (41) 
3.78927

>  <SCORE.INTRA.POLAR>  (41) 
0

>  <SCORE.INTRA.POLAR.0>  (41) 
0

>  <SCORE.INTRA.REPUL>  (41) 
0

>  <SCORE.INTRA.REPUL.0>  (41) 
0

>  <SCORE.INTRA.VDW>  (41) 
1.87189

>  <SCORE.INTRA.VDW.0>  (41) 
1.02728

>  <SCORE.INTRA.norm>  (41) 
0.201399

>  <SCORE.RESTR>  (41) 
0.0245151

>  <SCORE.RESTR.CAVITY>  (41) 
0.0245151

>  <SCORE.RESTR.norm>  (41) 
0.00111432

>  <SCORE.SYSTEM>  (41) 
-2.19272

>  <SCORE.SYSTEM.CONST>  (41) 
0

>  <SCORE.SYSTEM.DIHEDRAL>  (41) 
7.40233

>  <SCORE.SYSTEM.POLAR>  (41) 
-2.10933

>  <SCORE.SYSTEM.REPUL>  (41) 
0.126632

>  <SCORE.SYSTEM.VDW>  (41) 
0.644677

>  <SCORE.SYSTEM.norm>  (41) 
-0.0996689

>  <SCORE.heavy>  (41) 
22

>  <SCORE.norm>  (41) 
1.21374

$$$$
denovo_401
     RDKit          3D

 22 23  0  0  0  0  0  0  0  0999 V2000
   -8.7839   12.9191  -18.3806 C   0  0  0  0  0  0  0  0  0  0  0  0
   -9.7195   12.9212  -17.3105 O   0  0  0  0  0  0  0  0  0  0  0  0
   -9.3301   13.8212  -16.2705 C   0  0  0  0  0  0  0  0  0  0  0  0
  -10.3708   13.8019  -15.1296 C   0  0  2  0  0  0  0  0  0  0  0  0
  -10.3427   12.4433  -14.4379 C   0  0  0  0  0  0  0  0  0  0  0  0
   -9.3364   12.1605  -13.5019 C   0  0  0  0  0  0  0  0  0  0  0  0
   -9.2902   10.9223  -12.8588 C   0  0  0  0  0  0  0  0  0  0  0  0
  -10.2475    9.9514  -13.1434 C   0  0  0  0  0  0  0  0  0  0  0  0
  -11.2518   10.2173  -14.0713 C   0  0  0  0  0  0  0  0  0  0  0  0
  -11.2998   11.4547  -14.7158 C   0  0  0  0  0  0  0  0  0  0  0  0
  -11.7969   14.1708  -15.6120 C   0  0  2  0  0  0  0  0  0  0  0  0
  -11.8463   15.2606  -16.6879 C   0  0  0  0  0  0  0  0  0  0  0  0
  -13.2134   15.9374  -16.5482 C   0  0  0  0  0  0  0  0  0  0  0  0
  -13.8716   15.3434  -15.2999 C   0  0  2  0  0  0  0  0  0  0  0  0
  -14.6930   16.3161  -14.4362 C   0  0  0  0  0  0  0  0  0  0  0  0
  -14.9654   15.9359  -12.9405 C   0  0  0  0  0  0  0  0  0  0  0  0
  -13.9742   16.6843  -12.0261 C   0  0  0  0  0  0  0  0  0  0  0  0
  -16.3901   16.4524  -12.6151 C   0  0  0  0  0  0  0  0  0  0  0  0
  -14.8845   14.3973  -12.6873 C   0  0  1  0  0  0  0  0  0  0  0  0
  -15.8795   13.8498  -11.6636 C   0  0  0  0  0  0  0  0  0  0  0  0
  -15.1129   13.6675  -13.8940 O   0  0  0  0  0  0  0  0  0  0  0  0
  -12.6849   14.7684  -14.5154 C   0  0  0  0  0  0  0  0  0  0  0  0
  1  2  1  0
  2  3  1  0
  4  3  1  6
  4  5  1  0
  5  6  2  0
  6  7  1  0
  7  8  2  0
  8  9  1  0
  9 10  2  0
  4 11  1  0
 11 12  1  6
 12 13  1  0
 13 14  1  0
 14 15  1  1
 15 16  1  0
 16 17  1  0
 16 18  1  0
 16 19  1  0
 19 20  1  1
 19 21  1  0
 14 22  1  0
 10  5  1  0
 22 11  1  0
M  END
>  <CHROM.0>  (42) 
-58.81334057,-63.20596423,67.85736326,178.06215143,-26.32157790,177.61349867
-70.32831889,70.38513258

>  <CHROM.1>  (42) 
179.75903829,67.29219767,79.20143799,-37.18430326,-159.02108281,99.48935378
-143.93490414,172.70110144,-12.29194795,13.82996418,-14.51129683,-0.08238324
0.64947358,-0.81956187

>  <Name>  (42) 
denovo_401

>  <RI>  (42) 
3.94589e+08

>  <Rbt.Current_Directory>  (42) 
/tmp/claude-0/-home-user-Rare-cancers/1af35c7f-7dc4-53ce-91d2-1631a2a10a85/scratchpad/smwork/cross/dock_8XTT-model6

>  <Rbt.Executable>  (42) 
rbdock - v25.07-alpha

>  <Rbt.Library>  (42) 
libRbt.so (25.07, Buildalpha)

>  <Rbt.Parameter_File>  (42) 
/tmp/claude-0/-home-user-Rare-cancers/1af35c7f-7dc4-53ce-91d2-1631a2a10a85/scratchpad/rdroot/share/rDock/data/scripts/dock.prm

>  <Rbt.Receptor>  (42) 
rec.prm

>  <SCORE>  (42) 
27.4631

>  <SCORE.INTER>  (42) 
19.4133

>  <SCORE.INTER.CONST>  (42) 
1

>  <SCORE.INTER.POLAR>  (42) 
-0.510498

>  <SCORE.INTER.REPUL>  (42) 
0

>  <SCORE.INTER.ROT>  (42) 
7

>  <SCORE.INTER.VDW>  (42) 
8.74896

>  <SCORE.INTER.norm>  (42) 
0.882421

>  <SCORE.INTRA>  (42) 
13.4907

>  <SCORE.INTRA.DIHEDRAL>  (42) 
9.70818

>  <SCORE.INTRA.DIHEDRAL.0>  (42) 
3.78927

>  <SCORE.INTRA.POLAR>  (42) 
0

>  <SCORE.INTRA.POLAR.0>  (42) 
0

>  <SCORE.INTRA.REPUL>  (42) 
0

>  <SCORE.INTRA.REPUL.0>  (42) 
0

>  <SCORE.INTRA.VDW>  (42) 
8.63664

>  <SCORE.INTRA.VDW.0>  (42) 
1.02728

>  <SCORE.INTRA.norm>  (42) 
0.613215

>  <SCORE.RESTR>  (42) 
0

>  <SCORE.RESTR.CAVITY>  (42) 
0

>  <SCORE.RESTR.norm>  (42) 
0

>  <SCORE.SYSTEM>  (42) 
-5.44086

>  <SCORE.SYSTEM.CONST>  (42) 
0

>  <SCORE.SYSTEM.DIHEDRAL>  (42) 
5.7255

>  <SCORE.SYSTEM.POLAR>  (42) 
-2.73879

>  <SCORE.SYSTEM.REPUL>  (42) 
0.306779

>  <SCORE.SYSTEM.VDW>  (42) 
-0.525612

>  <SCORE.SYSTEM.norm>  (42) 
-0.247312

>  <SCORE.heavy>  (42) 
22

>  <SCORE.norm>  (42) 
1.24832

$$$$
denovo_401
     RDKit          3D

 22 23  0  0  0  0  0  0  0  0999 V2000
  -12.9631   17.2576  -17.2929 C   0  0  0  0  0  0  0  0  0  0  0  0
  -14.1374   16.6503  -16.7706 O   0  0  0  0  0  0  0  0  0  0  0  0
  -14.2106   16.7789  -15.3488 C   0  0  0  0  0  0  0  0  0  0  0  0
  -14.1162   15.3895  -14.6811 C   0  0  2  0  0  0  0  0  0  0  0  0
  -14.6568   15.4711  -13.2577 C   0  0  0  0  0  0  0  0  0  0  0  0
  -16.0246   15.7012  -13.0456 C   0  0  0  0  0  0  0  0  0  0  0  0
  -16.5404   15.7821  -11.7510 C   0  0  0  0  0  0  0  0  0  0  0  0
  -15.6965   15.6356  -10.6526 C   0  0  0  0  0  0  0  0  0  0  0  0
  -14.3362   15.4081  -10.8474 C   0  0  0  0  0  0  0  0  0  0  0  0
  -13.8181   15.3270  -12.1412 C   0  0  0  0  0  0  0  0  0  0  0  0
  -12.6821   14.8025  -14.7174 C   0  0  2  0  0  0  0  0  0  0  0  0
  -11.9915   14.8851  -16.0826 C   0  0  0  0  0  0  0  0  0  0  0  0
  -10.9745   13.7400  -16.1171 C   0  0  0  0  0  0  0  0  0  0  0  0
  -11.1976   12.9166  -14.8457 C   0  0  2  0  0  0  0  0  0  0  0  0
  -11.0488   11.3920  -14.9883 C   0  0  0  0  0  0  0  0  0  0  0  0
   -9.6589   10.7457  -14.6617 C   0  0  0  0  0  0  0  0  0  0  0  0
   -9.0694   10.1105  -15.9376 C   0  0  0  0  0  0  0  0  0  0  0  0
   -8.7277   11.9111  -14.2411 C   0  0  0  0  0  0  0  0  0  0  0  0
   -9.7423    9.6886  -13.5157 C   0  0  1  0  0  0  0  0  0  0  0  0
  -10.1387   10.2394  -12.1455 C   0  0  0  0  0  0  0  0  0  0  0  0
  -10.6957    8.6710  -13.8265 O   0  0  0  0  0  0  0  0  0  0  0  0
  -12.6218   13.2999  -14.4228 C   0  0  0  0  0  0  0  0  0  0  0  0
  1  2  1  0
  2  3  1  0
  4  3  1  1
  4  5  1  0
  5  6  2  0
  6  7  1  0
  7  8  2  0
  8  9  1  0
  9 10  2  0
  4 11  1  0
 11 12  1  6
 12 13  1  0
 13 14  1  0
 14 15  1  6
 15 16  1  0
 16 17  1  0
 16 18  1  0
 16 19  1  0
 19 20  1  1
 19 21  1  0
 14 22  1  0
 10  5  1  0
 22 11  1  0
M  END
>  <CHROM.0>  (43) 
-173.60359478,-62.14165629,70.75461097,-57.66840090,-26.83380971,-165.66411891
63.01663521,-29.37637425

>  <CHROM.1>  (43) 
-114.74398872,-160.94649421,67.97092646,-47.33046784,94.04156679,-115.89793065
-64.71668413,53.38669474,-12.43028341,13.65329521,-14.21571640,-2.75630424
-0.79022613,2.20772936

>  <Name>  (43) 
denovo_401

>  <RI>  (43) 
3.94589e+08

>  <Rbt.Current_Directory>  (43) 
/tmp/claude-0/-home-user-Rare-cancers/1af35c7f-7dc4-53ce-91d2-1631a2a10a85/scratchpad/smwork/cross/dock_8XTT-model6

>  <Rbt.Executable>  (43) 
rbdock - v25.07-alpha

>  <Rbt.Library>  (43) 
libRbt.so (25.07, Buildalpha)

>  <Rbt.Parameter_File>  (43) 
/tmp/claude-0/-home-user-Rare-cancers/1af35c7f-7dc4-53ce-91d2-1631a2a10a85/scratchpad/rdroot/share/rDock/data/scripts/dock.prm

>  <Rbt.Receptor>  (43) 
rec.prm

>  <SCORE>  (43) 
28.4240

>  <SCORE.INTER>  (43) 
12.064

>  <SCORE.INTER.CONST>  (43) 
1

>  <SCORE.INTER.POLAR>  (43) 
-0.848747

>  <SCORE.INTER.REPUL>  (43) 
0.0128954

>  <SCORE.INTER.ROT>  (43) 
7

>  <SCORE.INTER.VDW>  (43) 
2.48522

>  <SCORE.INTER.norm>  (43) 
0.548361

>  <SCORE.INTRA>  (43) 
16.8737

>  <SCORE.INTRA.DIHEDRAL>  (43) 
17.2014

>  <SCORE.INTRA.DIHEDRAL.0>  (43) 
3.78927

>  <SCORE.INTRA.POLAR>  (43) 
0

>  <SCORE.INTRA.POLAR.0>  (43) 
0

>  <SCORE.INTRA.REPUL>  (43) 
0

>  <SCORE.INTRA.REPUL.0>  (43) 
0

>  <SCORE.INTRA.VDW>  (43) 
8.27295

>  <SCORE.INTRA.VDW.0>  (43) 
1.02728

>  <SCORE.INTRA.norm>  (43) 
0.766984

>  <SCORE.RESTR>  (43) 
0.050906

>  <SCORE.RESTR.CAVITY>  (43) 
0.050906

>  <SCORE.RESTR.norm>  (43) 
0.00231391

>  <SCORE.SYSTEM>  (43) 
-0.564561

>  <SCORE.SYSTEM.CONST>  (43) 
0

>  <SCORE.SYSTEM.DIHEDRAL>  (43) 
9.72105

>  <SCORE.SYSTEM.POLAR>  (43) 
-2.80686

>  <SCORE.SYSTEM.REPUL>  (43) 
0.273859

>  <SCORE.SYSTEM.VDW>  (43) 
2.74895

>  <SCORE.SYSTEM.norm>  (43) 
-0.0256619

>  <SCORE.heavy>  (43) 
22

>  <SCORE.norm>  (43) 
1.292

$$$$
denovo_401
     RDKit          3D

 22 23  0  0  0  0  0  0  0  0999 V2000
   -9.8007    8.8841  -18.3037 C   0  0  0  0  0  0  0  0  0  0  0  0
   -9.7007   10.1347  -17.6355 O   0  0  0  0  0  0  0  0  0  0  0  0
   -9.4385    9.9683  -16.2402 C   0  0  0  0  0  0  0  0  0  0  0  0
   -9.3123   11.3452  -15.5523 C   0  0  2  0  0  0  0  0  0  0  0  0
   -9.0232   11.1481  -14.0682 C   0  0  0  0  0  0  0  0  0  0  0  0
   -9.8003   10.2492  -13.3219 C   0  0  0  0  0  0  0  0  0  0  0  0
   -9.5546   10.0554  -11.9615 C   0  0  0  0  0  0  0  0  0  0  0  0
   -8.5310   10.7575  -11.3296 C   0  0  0  0  0  0  0  0  0  0  0  0
   -7.7521   11.6542  -12.0572 C   0  0  0  0  0  0  0  0  0  0  0  0
   -7.9960   11.8500  -13.4177 C   0  0  0  0  0  0  0  0  0  0  0  0
  -10.5529   12.2460  -15.7805 C   0  0  2  0  0  0  0  0  0  0  0  0
  -10.3190   13.4296  -16.7250 C   0  0  0  0  0  0  0  0  0  0  0  0
  -11.3302   14.5063  -16.3194 C   0  0  0  0  0  0  0  0  0  0  0  0
  -12.0250   14.0008  -15.0522 C   0  0  2  0  0  0  0  0  0  0  0  0
  -12.3491   15.0609  -13.9854 C   0  0  0  0  0  0  0  0  0  0  0  0
  -13.8375   15.5244  -13.8243 C   0  0  0  0  0  0  0  0  0  0  0  0
  -14.7638   14.2917  -13.7882 C   0  0  0  0  0  0  0  0  0  0  0  0
  -13.9264   16.2222  -12.4432 C   0  0  0  0  0  0  0  0  0  0  0  0
  -14.2854   16.5092  -14.9500 C   0  0  1  0  0  0  0  0  0  0  0  0
  -13.8435   16.1307  -16.3640 C   0  0  0  0  0  0  0  0  0  0  0  0
  -15.7089   16.6219  -14.9948 O   0  0  0  0  0  0  0  0  0  0  0  0
  -11.0493   12.9472  -14.5116 C   0  0  0  0  0  0  0  0  0  0  0  0
  1  2  1  0
  2  3  1  0
  4  3  1  6
  4  5  1  0
  5  6  2  0
  6  7  1  0
  7  8  2  0
  8  9  1  0
  9 10  2  0
  4 11  1  0
 11 12  1  6
 12 13  1  0
 13 14  1  0
 14 15  1  1
 15 16  1  0
 16 17  1  0
 16 18  1  0
 16 19  1  0
 19 20  1  6
 19 21  1  0
 14 22  1  0
 10  5  1  0
 22 11  1  0
M  END
>  <CHROM.0>  (44) 
-60.47131311,174.39983197,64.41604834,53.79709552,-20.49866673,-56.15920845
62.11500855,67.89381338

>  <CHROM.1>  (44) 
179.02826122,-179.60023673,-48.27791015,-108.43622574,105.31302108,46.73861856
43.28017759,157.97478300,-11.22435250,12.94105073,-14.73402273,0.20496339
0.79227030,-1.82830000

>  <Name>  (44) 
denovo_401

>  <RI>  (44) 
3.94589e+08

>  <Rbt.Current_Directory>  (44) 
/tmp/claude-0/-home-user-Rare-cancers/1af35c7f-7dc4-53ce-91d2-1631a2a10a85/scratchpad/smwork/cross/dock_8XTT-model6

>  <Rbt.Executable>  (44) 
rbdock - v25.07-alpha

>  <Rbt.Library>  (44) 
libRbt.so (25.07, Buildalpha)

>  <Rbt.Parameter_File>  (44) 
/tmp/claude-0/-home-user-Rare-cancers/1af35c7f-7dc4-53ce-91d2-1631a2a10a85/scratchpad/rdroot/share/rDock/data/scripts/dock.prm

>  <Rbt.Receptor>  (44) 
rec.prm

>  <SCORE>  (44) 
28.5209

>  <SCORE.INTER>  (44) 
21.0113

>  <SCORE.INTER.CONST>  (44) 
1

>  <SCORE.INTER.POLAR>  (44) 
-1.24141

>  <SCORE.INTER.REPUL>  (44) 
0

>  <SCORE.INTER.ROT>  (44) 
7

>  <SCORE.INTER.VDW>  (44) 
12.8321

>  <SCORE.INTER.norm>  (44) 
0.955059

>  <SCORE.INTRA>  (44) 
9.92812

>  <SCORE.INTRA.DIHEDRAL>  (44) 
12.5263

>  <SCORE.INTRA.DIHEDRAL.0>  (44) 
3.78927

>  <SCORE.INTRA.POLAR>  (44) 
0

>  <SCORE.INTRA.POLAR.0>  (44) 
0

>  <SCORE.INTRA.REPUL>  (44) 
0

>  <SCORE.INTRA.REPUL.0>  (44) 
0

>  <SCORE.INTRA.VDW>  (44) 
3.66495

>  <SCORE.INTRA.VDW.0>  (44) 
1.02728

>  <SCORE.INTRA.norm>  (44) 
0.451278

>  <SCORE.RESTR>  (44) 
0.0861787

>  <SCORE.RESTR.CAVITY>  (44) 
0.0861787

>  <SCORE.RESTR.norm>  (44) 
0.00391721

>  <SCORE.SYSTEM>  (44) 
-2.50472

>  <SCORE.SYSTEM.CONST>  (44) 
0

>  <SCORE.SYSTEM.DIHEDRAL>  (44) 
6.07114

>  <SCORE.SYSTEM.POLAR>  (44) 
-1.84587

>  <SCORE.SYSTEM.REPUL>  (44) 
0.00435093

>  <SCORE.SYSTEM.VDW>  (44) 
0.713903

>  <SCORE.SYSTEM.norm>  (44) 
-0.113851

>  <SCORE.heavy>  (44) 
22

>  <SCORE.norm>  (44) 
1.2964

$$$$
denovo_401
     RDKit          3D

 22 23  0  0  0  0  0  0  0  0999 V2000
   -8.9282   12.8580  -18.5229 C   0  0  0  0  0  0  0  0  0  0  0  0
   -9.8615   12.9101  -17.4521 O   0  0  0  0  0  0  0  0  0  0  0  0
   -9.5258   13.9298  -16.5083 C   0  0  0  0  0  0  0  0  0  0  0  0
  -10.5100   13.9019  -15.3186 C   0  0  2  0  0  0  0  0  0  0  0  0
  -10.4058   12.5594  -14.6031 C   0  0  0  0  0  0  0  0  0  0  0  0
   -9.3725   12.3425  -13.6789 C   0  0  0  0  0  0  0  0  0  0  0  0
   -9.2567   11.1202  -13.0146 C   0  0  0  0  0  0  0  0  0  0  0  0
  -10.1705   10.0995  -13.2658 C   0  0  0  0  0  0  0  0  0  0  0  0
  -11.2008   10.2997  -14.1816 C   0  0  0  0  0  0  0  0  0  0  0  0
  -11.3184   11.5211  -14.8474 C   0  0  0  0  0  0  0  0  0  0  0  0
  -11.9685   14.2163  -15.7389 C   0  0  2  0  0  0  0  0  0  0  0  0
  -12.1352   15.4997  -16.5590 C   0  0  0  0  0  0  0  0  0  0  0  0
  -13.5653   15.9865  -16.3049 C   0  0  0  0  0  0  0  0  0  0  0  0
  -14.1536   15.0750  -15.2245 C   0  0  2  0  0  0  0  0  0  0  0  0
  -15.0697   15.7508  -14.1897 C   0  0  0  0  0  0  0  0  0  0  0  0
  -15.1491   15.1352  -12.7507 C   0  0  0  0  0  0  0  0  0  0  0  0
  -16.4202   15.6416  -12.0390 C   0  0  0  0  0  0  0  0  0  0  0  0
  -15.2937   13.6039  -12.9424 C   0  0  0  0  0  0  0  0  0  0  0  0
  -13.8830   15.4486  -11.8924 C   0  0  1  0  0  0  0  0  0  0  0  0
  -13.1590   16.7483  -12.2454 C   0  0  0  0  0  0  0  0  0  0  0  0
  -14.2149   15.5419  -10.5060 O   0  0  0  0  0  0  0  0  0  0  0  0
  -12.9107   14.4711  -14.5576 C   0  0  0  0  0  0  0  0  0  0  0  0
  1  2  1  0
  2  3  1  0
  4  3  1  6
  4  5  1  0
  5  6  2  0
  6  7  1  0
  7  8  2  0
  8  9  1  0
  9 10  2  0
  4 11  1  0
 11 12  1  6
 12 13  1  0
 13 14  1  0
 14 15  1  1
 15 16  1  0
 16 17  1  0
 16 18  1  0
 16 19  1  0
 19 20  1  6
 19 21  1  0
 14 22  1  0
 10  5  1  0
 22 11  1  0
M  END
>  <CHROM.0>  (45) 
-175.16536182,56.00851459,68.41883375,177.83867771,31.44935378,65.22133980
-71.77311257,-176.05596748

>  <CHROM.1>  (45) 
-176.61863890,61.81668706,81.24845282,-51.65465701,-151.13953118,-161.44544188
28.32067863,59.44057498,-12.24449161,13.90252078,-14.37122660,0.16840644
0.72628535,-1.02759360

>  <Name>  (45) 
denovo_401

>  <RI>  (45) 
3.94589e+08

>  <Rbt.Current_Directory>  (45) 
/tmp/claude-0/-home-user-Rare-cancers/1af35c7f-7dc4-53ce-91d2-1631a2a10a85/scratchpad/smwork/cross/dock_8XTT-model6

>  <Rbt.Executable>  (45) 
rbdock - v25.07-alpha

>  <Rbt.Library>  (45) 
libRbt.so (25.07, Buildalpha)

>  <Rbt.Parameter_File>  (45) 
/tmp/claude-0/-home-user-Rare-cancers/1af35c7f-7dc4-53ce-91d2-1631a2a10a85/scratchpad/rdroot/share/rDock/data/scripts/dock.prm

>  <Rbt.Receptor>  (45) 
rec.prm

>  <SCORE>  (45) 
32.0669

>  <SCORE.INTER>  (45) 
22.8605

>  <SCORE.INTER.CONST>  (45) 
1

>  <SCORE.INTER.POLAR>  (45) 
-0.45969

>  <SCORE.INTER.REPUL>  (45) 
0

>  <SCORE.INTER.ROT>  (45) 
7

>  <SCORE.INTER.VDW>  (45) 
12.0234

>  <SCORE.INTER.norm>  (45) 
1.03911

>  <SCORE.INTRA>  (45) 
7.53225

>  <SCORE.INTRA.DIHEDRAL>  (45) 
5.33205

>  <SCORE.INTRA.DIHEDRAL.0>  (45) 
3.78927

>  <SCORE.INTRA.POLAR>  (45) 
0

>  <SCORE.INTRA.POLAR.0>  (45) 
0

>  <SCORE.INTRA.REPUL>  (45) 
0

>  <SCORE.INTRA.REPUL.0>  (45) 
0

>  <SCORE.INTRA.VDW>  (45) 
4.86622

>  <SCORE.INTRA.VDW.0>  (45) 
1.02728

>  <SCORE.INTRA.norm>  (45) 
0.342375

>  <SCORE.RESTR>  (45) 
0

>  <SCORE.RESTR.CAVITY>  (45) 
0

>  <SCORE.RESTR.norm>  (45) 
0

>  <SCORE.SYSTEM>  (45) 
1.67416

>  <SCORE.SYSTEM.CONST>  (45) 
0

>  <SCORE.SYSTEM.DIHEDRAL>  (45) 
4.75674

>  <SCORE.SYSTEM.POLAR>  (45) 
-1.23198

>  <SCORE.SYSTEM.REPUL>  (45) 
0.109373

>  <SCORE.SYSTEM.VDW>  (45) 
2.93765

>  <SCORE.SYSTEM.norm>  (45) 
0.076098

>  <SCORE.heavy>  (45) 
22

>  <SCORE.norm>  (45) 
1.45759

$$$$
denovo_401
     RDKit          3D

 22 23  0  0  0  0  0  0  0  0999 V2000
   -8.3413   12.8604  -18.6433 C   0  0  0  0  0  0  0  0  0  0  0  0
   -9.6302   12.4307  -18.2256 O   0  0  0  0  0  0  0  0  0  0  0  0
   -9.5763   11.7358  -16.9776 C   0  0  0  0  0  0  0  0  0  0  0  0
   -9.4742   12.7413  -15.8099 C   0  0  2  0  0  0  0  0  0  0  0  0
   -8.2503   12.4135  -14.9616 C   0  0  0  0  0  0  0  0  0  0  0  0
   -7.0379   12.0862  -15.5875 C   0  0  0  0  0  0  0  0  0  0  0  0
   -5.9059   11.7802  -14.8302 C   0  0  0  0  0  0  0  0  0  0  0  0
   -5.9710   11.7963  -13.4390 C   0  0  0  0  0  0  0  0  0  0  0  0
   -7.1680   12.1181  -12.8035 C   0  0  0  0  0  0  0  0  0  0  0  0
   -8.3015   12.4242  -13.5587 C   0  0  0  0  0  0  0  0  0  0  0  0
  -10.7657   12.8012  -14.9549 C   0  0  2  0  0  0  0  0  0  0  0  0
  -11.8768   11.8479  -15.4069 C   0  0  0  0  0  0  0  0  0  0  0  0
  -13.1948   12.4799  -14.9486 C   0  0  0  0  0  0  0  0  0  0  0  0
  -12.8464   13.8589  -14.3818 C   0  0  2  0  0  0  0  0  0  0  0  0
  -13.8501   14.9876  -14.6743 C   0  0  0  0  0  0  0  0  0  0  0  0
  -14.5609   15.6844  -13.4639 C   0  0  0  0  0  0  0  0  0  0  0  0
  -15.1996   14.6166  -12.5525 C   0  0  0  0  0  0  0  0  0  0  0  0
  -13.4436   16.3897  -12.6534 C   0  0  0  0  0  0  0  0  0  0  0  0
  -15.6322   16.7267  -13.9151 C   0  0  1  0  0  0  0  0  0  0  0  0
  -15.2100   17.6430  -15.0640 C   0  0  0  0  0  0  0  0  0  0  0  0
  -16.8298   16.0765  -14.3442 O   0  0  0  0  0  0  0  0  0  0  0  0
  -11.4752   14.1586  -15.0015 C   0  0  0  0  0  0  0  0  0  0  0  0
  1  2  1  0
  2  3  1  0
  4  3  1  6
  4  5  1  0
  5  6  2  0
  6  7  1  0
  7  8  2  0
  8  9  1  0
  9 10  2  0
  4 11  1  0
 11 12  1  6
 12 13  1  0
 13 14  1  0
 14 15  1  6
 15 16  1  0
 16 17  1  0
 16 18  1  0
 16 19  1  0
 19 20  1  6
 19 21  1  0
 14 22  1  0
 10  5  1  0
 22 11  1  0
M  END
>  <CHROM.0>  (46) 
-59.20187524,57.94701163,-51.29596521,-63.34989066,29.98717941,-179.87190651
-72.09972062,-177.24574026

>  <CHROM.1>  (46) 
79.26522939,-124.81787077,43.14179039,1.00078263,118.21844695,-52.01236113
-43.64319593,78.41199869,-11.24133239,13.67454187,-14.86248117,0.24731659
0.43493498,-1.75159887

>  <Name>  (46) 
denovo_401

>  <RI>  (46) 
3.94589e+08

>  <Rbt.Current_Directory>  (46) 
/tmp/claude-0/-home-user-Rare-cancers/1af35c7f-7dc4-53ce-91d2-1631a2a10a85/scratchpad/smwork/cross/dock_8XTT-model6

>  <Rbt.Executable>  (46) 
rbdock - v25.07-alpha

>  <Rbt.Library>  (46) 
libRbt.so (25.07, Buildalpha)

>  <Rbt.Parameter_File>  (46) 
/tmp/claude-0/-home-user-Rare-cancers/1af35c7f-7dc4-53ce-91d2-1631a2a10a85/scratchpad/rdroot/share/rDock/data/scripts/dock.prm

>  <Rbt.Receptor>  (46) 
rec.prm

>  <SCORE>  (46) 
33.3502

>  <SCORE.INTER>  (46) 
16.3116

>  <SCORE.INTER.CONST>  (46) 
1

>  <SCORE.INTER.POLAR>  (46) 
-1.28431

>  <SCORE.INTER.REPUL>  (46) 
0

>  <SCORE.INTER.ROT>  (46) 
7

>  <SCORE.INTER.VDW>  (46) 
8.27826

>  <SCORE.INTER.norm>  (46) 
0.741436

>  <SCORE.INTRA>  (46) 
14.1789

>  <SCORE.INTRA.DIHEDRAL>  (46) 
18.7706

>  <SCORE.INTRA.DIHEDRAL.0>  (46) 
3.78927

>  <SCORE.INTRA.POLAR>  (46) 
0

>  <SCORE.INTRA.POLAR.0>  (46) 
0

>  <SCORE.INTRA.REPUL>  (46) 
0

>  <SCORE.INTRA.REPUL.0>  (46) 
0

>  <SCORE.INTRA.VDW>  (46) 
4.79364

>  <SCORE.INTRA.VDW.0>  (46) 
1.02728

>  <SCORE.INTRA.norm>  (46) 
0.644497

>  <SCORE.RESTR>  (46) 
0

>  <SCORE.RESTR.CAVITY>  (46) 
0

>  <SCORE.RESTR.norm>  (46) 
0

>  <SCORE.SYSTEM>  (46) 
2.85969

>  <SCORE.SYSTEM.CONST>  (46) 
0

>  <SCORE.SYSTEM.DIHEDRAL>  (46) 
4.76656

>  <SCORE.SYSTEM.POLAR>  (46) 
-1.37073

>  <SCORE.SYSTEM.REPUL>  (46) 
0.348316

>  <SCORE.SYSTEM.VDW>  (46) 
3.39532

>  <SCORE.SYSTEM.norm>  (46) 
0.129986

>  <SCORE.heavy>  (46) 
22

>  <SCORE.norm>  (46) 
1.51592

$$$$
denovo_401
     RDKit          3D

 22 23  0  0  0  0  0  0  0  0999 V2000
  -14.4002   17.8826  -16.0591 C   0  0  0  0  0  0  0  0  0  0  0  0
  -15.3126   17.7539  -14.9768 O   0  0  0  0  0  0  0  0  0  0  0  0
  -14.6460   17.3962  -13.7640 C   0  0  0  0  0  0  0  0  0  0  0  0
  -14.5923   15.8598  -13.6169 C   0  0  2  0  0  0  0  0  0  0  0  0
  -14.9550   15.4723  -12.1874 C   0  0  0  0  0  0  0  0  0  0  0  0
  -16.1669   14.8130  -11.9320 C   0  0  0  0  0  0  0  0  0  0  0  0
  -16.5200   14.4514  -10.6307 C   0  0  0  0  0  0  0  0  0  0  0  0
  -15.6678   14.7449   -9.5688 C   0  0  0  0  0  0  0  0  0  0  0  0
  -14.4620   15.4002   -9.8067 C   0  0  0  0  0  0  0  0  0  0  0  0
  -14.1068   15.7630  -11.1072 C   0  0  0  0  0  0  0  0  0  0  0  0
  -13.2269   15.2634  -14.0442 C   0  0  2  0  0  0  0  0  0  0  0  0
  -12.8719   15.4712  -15.5201 C   0  0  0  0  0  0  0  0  0  0  0  0
  -11.9301   14.3239  -15.8987 C   0  0  0  0  0  0  0  0  0  0  0  0
  -11.8775   13.3829  -14.6921 C   0  0  2  0  0  0  0  0  0  0  0  0
  -11.8174   11.8780  -15.0057 C   0  0  0  0  0  0  0  0  0  0  0  0
  -10.5618   11.0683  -14.5324 C   0  0  0  0  0  0  0  0  0  0  0  0
  -10.0410   10.1941  -15.6914 C   0  0  0  0  0  0  0  0  0  0  0  0
   -9.4688   12.1172  -14.2042 C   0  0  0  0  0  0  0  0  0  0  0  0
  -10.8527   10.1891  -13.2753 C   0  0  1  0  0  0  0  0  0  0  0  0
   -9.9900    8.9337  -13.1415 C   0  0  0  0  0  0  0  0  0  0  0  0
  -10.6584   10.9354  -12.0727 O   0  0  0  0  0  0  0  0  0  0  0  0
  -13.1500   13.7387  -13.9119 C   0  0  0  0  0  0  0  0  0  0  0  0
  1  2  1  0
  2  3  1  0
  4  3  1  1
  4  5  1  0
  5  6  2  0
  6  7  1  0
  7  8  2  0
  8  9  1  0
  9 10  2  0
  4 11  1  0
 11 12  1  6
 12 13  1  0
 13 14  1  0
 14 15  1  6
 15 16  1  0
 16 17  1  0
 16 18  1  0
 16 19  1  0
 19 20  1  1
 19 21  1  0
 14 22  1  0
 10  5  1  0
 22 11  1  0
M  END
>  <CHROM.0>  (47) 
-60.27230549,-62.76105175,-58.36165310,56.61570038,-28.54531298,61.15738166
-74.13608438,-42.60647941

>  <CHROM.1>  (47) 
-90.81907262,-135.66418391,110.69676762,-63.00956279,118.20393267,-132.61053826
152.19852463,175.48557106,-12.99342262,13.92203662,-13.49164205,-2.82135656
-0.83972933,2.20645429

>  <Name>  (47) 
denovo_401

>  <RI>  (47) 
3.94589e+08

>  <Rbt.Current_Directory>  (47) 
/tmp/claude-0/-home-user-Rare-cancers/1af35c7f-7dc4-53ce-91d2-1631a2a10a85/scratchpad/smwork/cross/dock_8XTT-model6

>  <Rbt.Executable>  (47) 
rbdock - v25.07-alpha

>  <Rbt.Library>  (47) 
libRbt.so (25.07, Buildalpha)

>  <Rbt.Parameter_File>  (47) 
/tmp/claude-0/-home-user-Rare-cancers/1af35c7f-7dc4-53ce-91d2-1631a2a10a85/scratchpad/rdroot/share/rDock/data/scripts/dock.prm

>  <Rbt.Receptor>  (47) 
rec.prm

>  <SCORE>  (47) 
34.6761

>  <SCORE.INTER>  (47) 
19.8566

>  <SCORE.INTER.CONST>  (47) 
1

>  <SCORE.INTER.POLAR>  (47) 
-0.122766

>  <SCORE.INTER.REPUL>  (47) 
0

>  <SCORE.INTER.ROT>  (47) 
7

>  <SCORE.INTER.VDW>  (47) 
7.87403

>  <SCORE.INTER.norm>  (47) 
0.902574

>  <SCORE.INTRA>  (47) 
19.7522

>  <SCORE.INTRA.DIHEDRAL>  (47) 
20.6651

>  <SCORE.INTRA.DIHEDRAL.0>  (47) 
3.78927

>  <SCORE.INTRA.POLAR>  (47) 
0

>  <SCORE.INTRA.POLAR.0>  (47) 
0

>  <SCORE.INTRA.REPUL>  (47) 
0

>  <SCORE.INTRA.REPUL.0>  (47) 
0

>  <SCORE.INTRA.VDW>  (47) 
9.41969

>  <SCORE.INTRA.VDW.0>  (47) 
1.02728

>  <SCORE.INTRA.norm>  (47) 
0.897829

>  <SCORE.RESTR>  (47) 
0.0125494

>  <SCORE.RESTR.CAVITY>  (47) 
0.0125494

>  <SCORE.RESTR.norm>  (47) 
0.000570429

>  <SCORE.SYSTEM>  (47) 
-4.94526

>  <SCORE.SYSTEM.CONST>  (47) 
0

>  <SCORE.SYSTEM.DIHEDRAL>  (47) 
6.30347

>  <SCORE.SYSTEM.POLAR>  (47) 
-2.9571

>  <SCORE.SYSTEM.REPUL>  (47) 
0.0390532

>  <SCORE.SYSTEM.VDW>  (47) 
1.76188

>  <SCORE.SYSTEM.norm>  (47) 
-0.224785

>  <SCORE.heavy>  (47) 
22

>  <SCORE.norm>  (47) 
1.57619

$$$$
denovo_401
     RDKit          3D

 22 23  0  0  0  0  0  0  0  0999 V2000
   -8.0352   12.0548  -19.1459 C   0  0  0  0  0  0  0  0  0  0  0  0
   -8.0286   12.7528  -17.9077 O   0  0  0  0  0  0  0  0  0  0  0  0
   -9.0217   12.2483  -17.0120 C   0  0  0  0  0  0  0  0  0  0  0  0
   -8.9768   13.0198  -15.6749 C   0  0  2  0  0  0  0  0  0  0  0  0
   -7.7989   12.5264  -14.8418 C   0  0  0  0  0  0  0  0  0  0  0  0
   -6.6214   12.1097  -15.4810 C   0  0  0  0  0  0  0  0  0  0  0  0
   -5.5319   11.6519  -14.7380 C   0  0  0  0  0  0  0  0  0  0  0  0
   -5.6054   11.6036  -13.3479 C   0  0  0  0  0  0  0  0  0  0  0  0
   -6.7683   12.0127  -12.6994 C   0  0  0  0  0  0  0  0  0  0  0  0
   -7.8592   12.4706  -13.4404 C   0  0  0  0  0  0  0  0  0  0  0  0
  -10.3103   12.9366  -14.8890 C   0  0  2  0  0  0  0  0  0  0  0  0
  -11.1148   11.6547  -15.1281 C   0  0  0  0  0  0  0  0  0  0  0  0
  -12.5801   12.0143  -14.8637 C   0  0  0  0  0  0  0  0  0  0  0  0
  -12.6259   13.5270  -14.6319 C   0  0  2  0  0  0  0  0  0  0  0  0
  -13.8462   14.2664  -15.2071 C   0  0  0  0  0  0  0  0  0  0  0  0
  -14.1536   15.7127  -14.6875 C   0  0  0  0  0  0  0  0  0  0  0  0
  -13.5918   16.7510  -15.6801 C   0  0  0  0  0  0  0  0  0  0  0  0
  -15.6973   15.8517  -14.6823 C   0  0  0  0  0  0  0  0  0  0  0  0
  -13.5896   15.9688  -13.2543 C   0  0  1  0  0  0  0  0  0  0  0  0
  -14.0176   17.2873  -12.6091 C   0  0  0  0  0  0  0  0  0  0  0  0
  -13.9927   14.9357  -12.3536 O   0  0  0  0  0  0  0  0  0  0  0  0
  -11.3223   14.0214  -15.2726 C   0  0  0  0  0  0  0  0  0  0  0  0
  1  2  1  0
  2  3  1  0
  4  3  1  6
  4  5  1  0
  5  6  2  0
  6  7  1  0
  7  8  2  0
  8  9  1  0
  9 10  2  0
  4 11  1  0
 11 12  1  6
 12 13  1  0
 13 14  1  0
 14 15  1  6
 15 16  1  0
 16 17  1  0
 16 18  1  0
 16 19  1  0
 19 20  1  1
 19 21  1  0
 14 22  1  0
 10  5  1  0
 22 11  1  0
M  END
>  <CHROM.0>  (48) 
-59.48296165,175.22065945,-149.50497241,176.21745961,-24.06674502,-57.07488072
-72.43117590,-176.20245350

>  <CHROM.1>  (48) 
179.47036031,-77.21898247,33.37147168,29.39586157,163.76795167,98.00443750
-171.89708891,58.28106890,-10.60086059,13.56246682,-14.91391580,0.24199700
0.44381145,-1.72915957

>  <Name>  (48) 
denovo_401

>  <RI>  (48) 
3.94589e+08

>  <Rbt.Current_Directory>  (48) 
/tmp/claude-0/-home-user-Rare-cancers/1af35c7f-7dc4-53ce-91d2-1631a2a10a85/scratchpad/smwork/cross/dock_8XTT-model6

>  <Rbt.Executable>  (48) 
rbdock - v25.07-alpha

>  <Rbt.Library>  (48) 
libRbt.so (25.07, Buildalpha)

>  <Rbt.Parameter_File>  (48) 
/tmp/claude-0/-home-user-Rare-cancers/1af35c7f-7dc4-53ce-91d2-1631a2a10a85/scratchpad/rdroot/share/rDock/data/scripts/dock.prm

>  <Rbt.Receptor>  (48) 
rec.prm

>  <SCORE>  (48) 
40.1499

>  <SCORE.INTER>  (48) 
19.2438

>  <SCORE.INTER.CONST>  (48) 
1

>  <SCORE.INTER.POLAR>  (48) 
-0.320218

>  <SCORE.INTER.REPUL>  (48) 
0

>  <SCORE.INTER.ROT>  (48) 
7

>  <SCORE.INTER.VDW>  (48) 
7.93252

>  <SCORE.INTER.norm>  (48) 
0.874717

>  <SCORE.INTRA>  (48) 
7.91434

>  <SCORE.INTRA.DIHEDRAL>  (48) 
6.82055

>  <SCORE.INTRA.DIHEDRAL.0>  (48) 
3.78927

>  <SCORE.INTRA.POLAR>  (48) 
0

>  <SCORE.INTRA.POLAR.0>  (48) 
0

>  <SCORE.INTRA.REPUL>  (48) 
0

>  <SCORE.INTRA.REPUL.0>  (48) 
0

>  <SCORE.INTRA.VDW>  (48) 
4.50407

>  <SCORE.INTRA.VDW.0>  (48) 
1.02728

>  <SCORE.INTRA.norm>  (48) 
0.359743

>  <SCORE.RESTR>  (48) 
0.0299398

>  <SCORE.RESTR.CAVITY>  (48) 
0.0299398

>  <SCORE.RESTR.norm>  (48) 
0.0013609

>  <SCORE.SYSTEM>  (48) 
12.9618

>  <SCORE.SYSTEM.CONST>  (48) 
0

>  <SCORE.SYSTEM.DIHEDRAL>  (48) 
9.40086

>  <SCORE.SYSTEM.POLAR>  (48) 
-2.07359

>  <SCORE.SYSTEM.REPUL>  (48) 
0.191254

>  <SCORE.SYSTEM.VDW>  (48) 
14.3553

>  <SCORE.SYSTEM.norm>  (48) 
0.589174

>  <SCORE.heavy>  (48) 
22

>  <SCORE.norm>  (48) 
1.82499

$$$$
denovo_401
     RDKit          3D

 22 23  0  0  0  0  0  0  0  0999 V2000
   -8.7818    9.8147  -17.5628 C   0  0  0  0  0  0  0  0  0  0  0  0
   -8.9771   10.8901  -16.6540 O   0  0  0  0  0  0  0  0  0  0  0  0
  -10.2999   10.8896  -16.1120 C   0  0  0  0  0  0  0  0  0  0  0  0
  -10.4868   12.0894  -15.1577 C   0  0  2  0  0  0  0  0  0  0  0  0
   -9.5455   11.9440  -13.9669 C   0  0  0  0  0  0  0  0  0  0  0  0
   -8.4085   12.7611  -13.8756 C   0  0  0  0  0  0  0  0  0  0  0  0
   -7.5321   12.6431  -12.7955 C   0  0  0  0  0  0  0  0  0  0  0  0
   -7.7798   11.7071  -11.7942 C   0  0  0  0  0  0  0  0  0  0  0  0
   -8.9038   10.8880  -11.8719 C   0  0  0  0  0  0  0  0  0  0  0  0
   -9.7815   11.0041  -12.9512 C   0  0  0  0  0  0  0  0  0  0  0  0
  -11.9583   12.2739  -14.7068 C   0  0  2  0  0  0  0  0  0  0  0  0
  -13.0029   11.8815  -15.7567 C   0  0  0  0  0  0  0  0  0  0  0  0
  -14.2527   12.7113  -15.4469 C   0  0  0  0  0  0  0  0  0  0  0  0
  -13.8678   13.6835  -14.3285 C   0  0  2  0  0  0  0  0  0  0  0  0
  -14.4744   15.0947  -14.4157 C   0  0  0  0  0  0  0  0  0  0  0  0
  -14.9420   15.7875  -13.0900 C   0  0  0  0  0  0  0  0  0  0  0  0
  -15.6865   14.7666  -12.2056 C   0  0  0  0  0  0  0  0  0  0  0  0
  -13.6509   16.2070  -12.3421 C   0  0  0  0  0  0  0  0  0  0  0  0
  -15.8389   17.0388  -13.3501 C   0  0  1  0  0  0  0  0  0  0  0  0
  -15.2060   18.1284  -14.2163 C   0  0  0  0  0  0  0  0  0  0  0  0
  -17.0559   16.6698  -14.0010 O   0  0  0  0  0  0  0  0  0  0  0  0
  -12.3365   13.7295  -14.4128 C   0  0  0  0  0  0  0  0  0  0  0  0
  1  2  1  0
  2  3  1  0
  4  3  1  6
  4  5  1  0
  5  6  2  0
  6  7  1  0
  7  8  2  0
  8  9  1  0
  9 10  2  0
  4 11  1  0
 11 12  1  6
 12 13  1  0
 13 14  1  0
 14 15  1  6
 15 16  1  0
 16 17  1  0
 16 18  1  0
 16 19  1  0
 19 20  1  6
 19 21  1  0
 14 22  1  0
 10  5  1  0
 22 11  1  0
M  END
>  <CHROM.0>  (49) 
-60.38732085,-63.98142936,66.98433343,55.15625851,-23.96593230,-59.84061804
60.84433390,68.93587801

>  <CHROM.1>  (49) 
-178.60265538,-63.79286123,106.24957790,-33.14720205,141.02414684,-42.67000304
-57.17558013,-98.92157336,-12.03179996,13.34814524,-14.18364847,0.43704819
0.51124346,-2.14255593

>  <Name>  (49) 
denovo_401

>  <RI>  (49) 
3.94589e+08

>  <Rbt.Current_Directory>  (49) 
/tmp/claude-0/-home-user-Rare-cancers/1af35c7f-7dc4-53ce-91d2-1631a2a10a85/scratchpad/smwork/cross/dock_8XTT-model6

>  <Rbt.Executable>  (49) 
rbdock - v25.07-alpha

>  <Rbt.Library>  (49) 
libRbt.so (25.07, Buildalpha)

>  <Rbt.Parameter_File>  (49) 
/tmp/claude-0/-home-user-Rare-cancers/1af35c7f-7dc4-53ce-91d2-1631a2a10a85/scratchpad/rdroot/share/rDock/data/scripts/dock.prm

>  <Rbt.Receptor>  (49) 
rec.prm

>  <SCORE>  (49) 
42.7642

>  <SCORE.INTER>  (49) 
39.3929

>  <SCORE.INTER.CONST>  (49) 
1

>  <SCORE.INTER.POLAR>  (49) 
0

>  <SCORE.INTER.REPUL>  (49) 
0

>  <SCORE.INTER.ROT>  (49) 
7

>  <SCORE.INTER.VDW>  (49) 
26.9929

>  <SCORE.INTER.norm>  (49) 
1.79058

>  <SCORE.INTRA>  (49) 
8.8234

>  <SCORE.INTRA.DIHEDRAL>  (49) 
10.5287

>  <SCORE.INTRA.DIHEDRAL.0>  (49) 
3.78927

>  <SCORE.INTRA.POLAR>  (49) 
0

>  <SCORE.INTRA.POLAR.0>  (49) 
0

>  <SCORE.INTRA.REPUL>  (49) 
0

>  <SCORE.INTRA.REPUL.0>  (49) 
0

>  <SCORE.INTRA.VDW>  (49) 
3.55907

>  <SCORE.INTRA.VDW.0>  (49) 
1.02728

>  <SCORE.INTRA.norm>  (49) 
0.401063

>  <SCORE.RESTR>  (49) 
0

>  <SCORE.RESTR.CAVITY>  (49) 
0

>  <SCORE.RESTR.norm>  (49) 
0

>  <SCORE.SYSTEM>  (49) 
-5.45205

>  <SCORE.SYSTEM.CONST>  (49) 
0

>  <SCORE.SYSTEM.DIHEDRAL>  (49) 
5.4934

>  <SCORE.SYSTEM.POLAR>  (49) 
-2.70125

>  <SCORE.SYSTEM.REPUL>  (49) 
0.00395507

>  <SCORE.SYSTEM.VDW>  (49) 
0.965713

>  <SCORE.SYSTEM.norm>  (49) 
-0.247821

>  <SCORE.heavy>  (49) 
22

>  <SCORE.norm>  (49) 
1.94383

$$$$
denovo_401
     RDKit          3D

 22 23  0  0  0  0  0  0  0  0999 V2000
  -13.5523   16.6172  -16.3049 C   0  0  0  0  0  0  0  0  0  0  0  0
  -13.0235   15.4731  -16.9621 O   0  0  0  0  0  0  0  0  0  0  0  0
  -13.6280   14.2668  -16.4903 C   0  0  0  0  0  0  0  0  0  0  0  0
  -12.9719   13.8233  -15.1644 C   0  0  2  0  0  0  0  0  0  0  0  0
  -13.6313   14.5549  -14.0004 C   0  0  0  0  0  0  0  0  0  0  0  0
  -14.6555   13.9272  -13.2754 C   0  0  0  0  0  0  0  0  0  0  0  0
  -15.2747   14.5796  -12.2079 C   0  0  0  0  0  0  0  0  0  0  0  0
  -14.8795   15.8670  -11.8522 C   0  0  0  0  0  0  0  0  0  0  0  0
  -13.8650   16.5034  -12.5635 C   0  0  0  0  0  0  0  0  0  0  0  0
  -13.2445   15.8530  -13.6317 C   0  0  0  0  0  0  0  0  0  0  0  0
  -11.4334   14.0126  -15.1635 C   0  0  2  0  0  0  0  0  0  0  0  0
  -10.7789   13.9380  -16.5469 C   0  0  0  0  0  0  0  0  0  0  0  0
   -9.3367   13.4777  -16.3130 C   0  0  0  0  0  0  0  0  0  0  0  0
   -9.2198   13.1400  -14.8243 C   0  0  2  0  0  0  0  0  0  0  0  0
   -8.3465   11.9242  -14.4694 C   0  0  0  0  0  0  0  0  0  0  0  0
   -7.9216   11.7233  -12.9744 C   0  0  0  0  0  0  0  0  0  0  0  0
   -9.1610   11.3751  -12.1250 C   0  0  0  0  0  0  0  0  0  0  0  0
   -6.9756   10.4957  -12.9544 C   0  0  0  0  0  0  0  0  0  0  0  0
   -7.1904   12.9706  -12.3848 C   0  0  1  0  0  0  0  0  0  0  0  0
   -7.5399   13.3089  -10.9352 C   0  0  0  0  0  0  0  0  0  0  0  0
   -5.7728   12.7978  -12.4224 O   0  0  0  0  0  0  0  0  0  0  0  0
  -10.6772   12.9226  -14.3966 C   0  0  0  0  0  0  0  0  0  0  0  0
  1  2  1  0
  2  3  1  0
  4  3  1  6
  4  5  1  0
  5  6  2  0
  6  7  1  0
  7  8  2  0
  8  9  1  0
  9 10  2  0
  4 11  1  0
 11 12  1  6
 12 13  1  0
 13 14  1  0
 14 15  1  6
 15 16  1  0
 16 17  1  0
 16 18  1  0
 16 19  1  0
 19 20  1  1
 19 21  1  0
 14 22  1  0
 10  5  1  0
 22 11  1  0
M  END
>  <CHROM.0>  (50) 
-173.85025286,-61.98884332,-57.03855725,-177.09079446,-24.57059574,-49.98976706
-69.27692980,76.35903531

>  <CHROM.1>  (50) 
-81.05579597,84.44372396,96.77165203,-27.78115984,166.22409686,67.98688205
141.12201100,-172.07032169,-10.94542239,13.77729417,-14.01135872,-2.90279671
-0.43445896,1.62209056

>  <Name>  (50) 
denovo_401

>  <RI>  (50) 
3.94589e+08

>  <Rbt.Current_Directory>  (50) 
/tmp/claude-0/-home-user-Rare-cancers/1af35c7f-7dc4-53ce-91d2-1631a2a10a85/scratchpad/smwork/cross/dock_8XTT-model6

>  <Rbt.Executable>  (50) 
rbdock - v25.07-alpha

>  <Rbt.Library>  (50) 
libRbt.so (25.07, Buildalpha)

>  <Rbt.Parameter_File>  (50) 
/tmp/claude-0/-home-user-Rare-cancers/1af35c7f-7dc4-53ce-91d2-1631a2a10a85/scratchpad/rdroot/share/rDock/data/scripts/dock.prm

>  <Rbt.Receptor>  (50) 
rec.prm

>  <SCORE>  (50) 
58.4609

>  <SCORE.INTER>  (50) 
45.5668

>  <SCORE.INTER.CONST>  (50) 
1

>  <SCORE.INTER.POLAR>  (50) 
-0.529824

>  <SCORE.INTER.REPUL>  (50) 
0

>  <SCORE.INTER.ROT>  (50) 
7

>  <SCORE.INTER.VDW>  (50) 
34.9682

>  <SCORE.INTER.norm>  (50) 
2.07122

>  <SCORE.INTRA>  (50) 
18.0801

>  <SCORE.INTRA.DIHEDRAL>  (50) 
10.3013

>  <SCORE.INTRA.DIHEDRAL.0>  (50) 
3.78927

>  <SCORE.INTRA.POLAR>  (50) 
0

>  <SCORE.INTRA.POLAR.0>  (50) 
0

>  <SCORE.INTRA.REPUL>  (50) 
0

>  <SCORE.INTRA.REPUL.0>  (50) 
0

>  <SCORE.INTRA.VDW>  (50) 
12.9295

>  <SCORE.INTRA.VDW.0>  (50) 
1.02728

>  <SCORE.INTRA.norm>  (50) 
0.821823

>  <SCORE.RESTR>  (50) 
0.356418

>  <SCORE.RESTR.CAVITY>  (50) 
0.356418

>  <SCORE.RESTR.norm>  (50) 
0.0162008

>  <SCORE.SYSTEM>  (50) 
-5.54244

>  <SCORE.SYSTEM.CONST>  (50) 
0

>  <SCORE.SYSTEM.DIHEDRAL>  (50) 
7.02474

>  <SCORE.SYSTEM.POLAR>  (50) 
-3.09047

>  <SCORE.SYSTEM.VDW>  (50) 
1.4528

>  <SCORE.SYSTEM.norm>  (50) 
-0.251929

>  <SCORE.heavy>  (50) 
22

>  <SCORE.norm>  (50) 
2.65731

$$$$
