denovo_401
     RDKit          3D

 22 23  0  0  0  0  0  0  0  0999 V2000
    3.5358   12.6906    5.4493 C   0  0  0  0  0  0  0  0  0  0  0  0
    3.9895   13.3447    4.2718 O   0  0  0  0  0  0  0  0  0  0  0  0
    4.9245   12.5411    3.5484 C   0  0  0  0  0  0  0  0  0  0  0  0
    5.5022   13.3354    2.3566 C   0  0  2  0  0  0  0  0  0  0  0  0
    4.3775   14.0865    1.6524 C   0  0  0  0  0  0  0  0  0  0  0  0
    4.6779   15.2047    0.8598 C   0  0  0  0  0  0  0  0  0  0  0  0
    3.6636   15.9085    0.2083 C   0  0  0  0  0  0  0  0  0  0  0  0
    2.3371   15.5050    0.3412 C   0  0  0  0  0  0  0  0  0  0  0  0
    2.0234   14.3976    1.1257 C   0  0  0  0  0  0  0  0  0  0  0  0
    3.0361   13.6923    1.7784 C   0  0  0  0  0  0  0  0  0  0  0  0
    6.3013   12.4439    1.3721 C   0  0  2  0  0  0  0  0  0  0  0  0
    7.1298   13.2149    0.3392 C   0  0  0  0  0  0  0  0  0  0  0  0
    7.2711   12.2887   -0.8727 C   0  0  0  0  0  0  0  0  0  0  0  0
    6.3955   11.0641   -0.5936 C   0  0  2  0  0  0  0  0  0  0  0  0
    5.6451   10.4756   -1.8008 C   0  0  0  0  0  0  0  0  0  0  0  0
    5.0227    9.0437   -1.6649 C   0  0  0  0  0  0  0  0  0  0  0  0
    3.5620    9.0637   -2.1595 C   0  0  0  0  0  0  0  0  0  0  0  0
    5.8315    8.1279   -2.6186 C   0  0  0  0  0  0  0  0  0  0  0  0
    5.0960    8.4927   -0.2058 C   0  0  1  0  0  0  0  0  0  0  0  0
    4.6404    7.0437   -0.0304 C   0  0  0  0  0  0  0  0  0  0  0  0
    6.4316    8.5537    0.2977 O   0  0  0  0  0  0  0  0  0  0  0  0
    5.4190   11.5659    0.4783 C   0  0  0  0  0  0  0  0  0  0  0  0
  1  2  1  0
  2  3  1  0
  4  3  1  1
  4  5  1  0
  5  6  2  0
  6  7  1  0
  7  8  2  0
  8  9  1  0
  9 10  2  0
  4 11  1  0
 11 12  1  6
 12 13  1  0
 13 14  1  0
 14 15  1  6
 15 16  1  0
 16 17  1  0
 16 18  1  0
 16 19  1  0
 19 20  1  6
 19 21  1  0
 14 22  1  0
 10  5  1  0
 22 11  1  0
M  END
>  <CHROM.0>  (1) 
163.76961051,-74.19517758,65.85383366,65.73319242,-60.89245171,68.01445277
-168.56181907,71.45604521

>  <CHROM.1>  (1) 
-174.32527665,-43.53484102,158.24537162,-168.05086986,165.36015238,131.47409563
-173.85919004,177.40158580,4.87633388,11.81492613,0.66295366,3.12456712,1.32630838
-0.98313232

>  <Name>  (1) 
denovo_401

>  <RI>  (1) 
-1.15655e+09

>  <Rbt.Current_Directory>  (1) 
/tmp/claude-0/-home-user-Rare-cancers/1af35c7f-7dc4-53ce-91d2-1631a2a10a85/scratchpad/smwork/cross/dock_metad-opened_v2-statematch

>  <Rbt.Executable>  (1) 
rbdock - v25.07-alpha

>  <Rbt.Library>  (1) 
libRbt.so (25.07, Buildalpha)

>  <Rbt.Parameter_File>  (1) 
/tmp/claude-0/-home-user-Rare-cancers/1af35c7f-7dc4-53ce-91d2-1631a2a10a85/scratchpad/rdroot/share/rDock/data/scripts/dock.prm

>  <Rbt.Receptor>  (1) 
rec.prm

>  <SCORE>  (1) 
-23.9601

>  <SCORE.INTER>  (1) 
-9.05579

>  <SCORE.INTER.CONST>  (1) 
1

>  <SCORE.INTER.POLAR>  (1) 
0

>  <SCORE.INTER.REPUL>  (1) 
0.000130599

>  <SCORE.INTER.ROT>  (1) 
7

>  <SCORE.INTER.VDW>  (1) 
-21.4564

>  <SCORE.INTER.norm>  (1) 
-0.411627

>  <SCORE.INTRA>  (1) 
6.56373

>  <SCORE.INTRA.DIHEDRAL>  (1) 
6.34856

>  <SCORE.INTRA.DIHEDRAL.0>  (1) 
3.78927

>  <SCORE.INTRA.POLAR>  (1) 
0

>  <SCORE.INTRA.POLAR.0>  (1) 
0

>  <SCORE.INTRA.REPUL>  (1) 
0

>  <SCORE.INTRA.REPUL.0>  (1) 
0

>  <SCORE.INTRA.VDW>  (1) 
3.38945

>  <SCORE.INTRA.VDW.0>  (1) 
1.02728

>  <SCORE.INTRA.norm>  (1) 
0.298351

>  <SCORE.RESTR>  (1) 
0

>  <SCORE.RESTR.CAVITY>  (1) 
0

>  <SCORE.RESTR.norm>  (1) 
0

>  <SCORE.SYSTEM>  (1) 
-21.468

>  <SCORE.SYSTEM.CONST>  (1) 
0

>  <SCORE.SYSTEM.DIHEDRAL>  (1) 
4.16696

>  <SCORE.SYSTEM.POLAR>  (1) 
-6.61107

>  <SCORE.SYSTEM.VDW>  (1) 
-1.0739

>  <SCORE.SYSTEM.norm>  (1) 
-0.97582

>  <SCORE.heavy>  (1) 
22

>  <SCORE.norm>  (1) 
-1.0891

$$$$
denovo_401
     RDKit          3D

 22 23  0  0  0  0  0  0  0  0999 V2000
    2.5935    9.0239   -1.9012 C   0  0  0  0  0  0  0  0  0  0  0  0
    3.9097    9.3915   -1.5100 O   0  0  0  0  0  0  0  0  0  0  0  0
    4.8974    8.5883   -2.1600 C   0  0  0  0  0  0  0  0  0  0  0  0
    6.3126    9.0169   -1.7145 C   0  0  2  0  0  0  0  0  0  0  0  0
    6.5258    8.6299   -0.2551 C   0  0  0  0  0  0  0  0  0  0  0  0
    7.6656    9.0846    0.4253 C   0  0  0  0  0  0  0  0  0  0  0  0
    7.8819    8.7401    1.7607 C   0  0  0  0  0  0  0  0  0  0  0  0
    6.9636    7.9367    2.4323 C   0  0  0  0  0  0  0  0  0  0  0  0
    5.8282    7.4766    1.7695 C   0  0  0  0  0  0  0  0  0  0  0  0
    5.6098    7.8195    0.4340 C   0  0  0  0  0  0  0  0  0  0  0  0
    6.5866   10.5236   -1.9545 C   0  0  2  0  0  0  0  0  0  0  0  0
    8.0079   10.8481   -2.4259 C   0  0  0  0  0  0  0  0  0  0  0  0
    8.2910   12.2837   -1.9729 C   0  0  0  0  0  0  0  0  0  0  0  0
    7.1006   12.7152   -1.1122 C   0  0  2  0  0  0  0  0  0  0  0  0
    7.4272   13.5897    0.1107 C   0  0  0  0  0  0  0  0  0  0  0  0
    6.3224   14.5639    0.6459 C   0  0  0  0  0  0  0  0  0  0  0  0
    6.8778   15.3757    1.8339 C   0  0  0  0  0  0  0  0  0  0  0  0
    6.0254   15.5568   -0.5066 C   0  0  0  0  0  0  0  0  0  0  0  0
    5.0139   13.8193    1.0596 C   0  0  1  0  0  0  0  0  0  0  0  0
    5.1653   12.8191    2.2062 C   0  0  0  0  0  0  0  0  0  0  0  0
    4.0061   14.7451    1.4697 O   0  0  0  0  0  0  0  0  0  0  0  0
    6.4688   11.3820   -0.6906 C   0  0  0  0  0  0  0  0  0  0  0  0
  1  2  1  0
  2  3  1  0
  4  3  1  1
  4  5  1  0
  5  6  2  0
  6  7  1  0
  7  8  2  0
  8  9  1  0
  9 10  2  0
  4 11  1  0
 11 12  1  1
 12 13  1  0
 13 14  1  0
 14 15  1  1
 15 16  1  0
 16 17  1  0
 16 18  1  0
 16 19  1  0
 19 20  1  1
 19 21  1  0
 14 22  1  0
 10  5  1  0
 22 11  1  0
M  END
>  <CHROM.0>  (2) 
-42.11289026,-73.72714057,73.57473353,70.88887274,179.54926172,66.71925817
-168.48520643,68.09666018

>  <CHROM.1>  (2) 
179.87008917,69.37811699,-171.03961497,-141.79976089,153.32587587,-177.86889246
62.52902322,169.35934873,6.09142296,11.17399303,-0.09727616,1.75825044,1.37951679
3.11927196

>  <Name>  (2) 
denovo_401

>  <RI>  (2) 
-1.15655e+09

>  <Rbt.Current_Directory>  (2) 
/tmp/claude-0/-home-user-Rare-cancers/1af35c7f-7dc4-53ce-91d2-1631a2a10a85/scratchpad/smwork/cross/dock_metad-opened_v2-statematch

>  <Rbt.Executable>  (2) 
rbdock - v25.07-alpha

>  <Rbt.Library>  (2) 
libRbt.so (25.07, Buildalpha)

>  <Rbt.Parameter_File>  (2) 
/tmp/claude-0/-home-user-Rare-cancers/1af35c7f-7dc4-53ce-91d2-1631a2a10a85/scratchpad/rdroot/share/rDock/data/scripts/dock.prm

>  <Rbt.Receptor>  (2) 
rec.prm

>  <SCORE>  (2) 
-19.3893

>  <SCORE.INTER>  (2) 
-5.2697

>  <SCORE.INTER.CONST>  (2) 
1

>  <SCORE.INTER.POLAR>  (2) 
-0.356998

>  <SCORE.INTER.REPUL>  (2) 
0

>  <SCORE.INTER.ROT>  (2) 
7

>  <SCORE.INTER.VDW>  (2) 
-16.4559

>  <SCORE.INTER.norm>  (2) 
-0.239532

>  <SCORE.INTRA>  (2) 
5.91199

>  <SCORE.INTRA.DIHEDRAL>  (2) 
4.96091

>  <SCORE.INTRA.DIHEDRAL.0>  (2) 
3.78927

>  <SCORE.INTRA.POLAR>  (2) 
0

>  <SCORE.INTRA.POLAR.0>  (2) 
0

>  <SCORE.INTRA.REPUL>  (2) 
0

>  <SCORE.INTRA.REPUL.0>  (2) 
0

>  <SCORE.INTRA.VDW>  (2) 
3.43153

>  <SCORE.INTRA.VDW.0>  (2) 
1.02728

>  <SCORE.INTRA.norm>  (2) 
0.268727

>  <SCORE.RESTR>  (2) 
0

>  <SCORE.RESTR.CAVITY>  (2) 
0

>  <SCORE.RESTR.norm>  (2) 
0

>  <SCORE.SYSTEM>  (2) 
-20.0316

>  <SCORE.SYSTEM.CONST>  (2) 
0

>  <SCORE.SYSTEM.DIHEDRAL>  (2) 
5.06271

>  <SCORE.SYSTEM.POLAR>  (2) 
-6.46477

>  <SCORE.SYSTEM.REPUL>  (2) 
0.0902428

>  <SCORE.SYSTEM.VDW>  (2) 
-1.0339

>  <SCORE.SYSTEM.norm>  (2) 
-0.910525

>  <SCORE.heavy>  (2) 
22

>  <SCORE.norm>  (2) 
-0.881331

$$$$
denovo_401
     RDKit          3D

 22 23  0  0  0  0  0  0  0  0999 V2000
    3.5226   13.7204    6.1672 C   0  0  0  0  0  0  0  0  0  0  0  0
    2.8996   13.8399    4.8952 O   0  0  0  0  0  0  0  0  0  0  0  0
    3.3037   12.7937    4.0090 C   0  0  0  0  0  0  0  0  0  0  0  0
    4.1443   13.3708    2.8491 C   0  0  2  0  0  0  0  0  0  0  0  0
    3.2379   14.1492    1.9017 C   0  0  0  0  0  0  0  0  0  0  0  0
    3.7908   15.1155    1.0477 C   0  0  0  0  0  0  0  0  0  0  0  0
    2.9791   15.8415    0.1743 C   0  0  0  0  0  0  0  0  0  0  0  0
    1.6056   15.6121    0.1439 C   0  0  0  0  0  0  0  0  0  0  0  0
    1.0422   14.6570    0.9868 C   0  0  0  0  0  0  0  0  0  0  0  0
    1.8519   13.9299    1.8613 C   0  0  0  0  0  0  0  0  0  0  0  0
    4.9595   12.2853    2.1009 C   0  0  2  0  0  0  0  0  0  0  0  0
    6.3590   12.0306    2.6701 C   0  0  0  0  0  0  0  0  0  0  0  0
    7.2042   11.5035    1.5063 C   0  0  0  0  0  0  0  0  0  0  0  0
    6.3355   11.6090    0.2500 C   0  0  2  0  0  0  0  0  0  0  0  0
    7.0590   12.0186   -1.0445 C   0  0  0  0  0  0  0  0  0  0  0  0
    7.1753   10.9643   -2.1982 C   0  0  0  0  0  0  0  0  0  0  0  0
    5.8355   10.8756   -2.9570 C   0  0  0  0  0  0  0  0  0  0  0  0
    8.2394   11.5146   -3.1817 C   0  0  0  0  0  0  0  0  0  0  0  0
    7.6035    9.5542   -1.6825 C   0  0  1  0  0  0  0  0  0  0  0  0
    8.8770    9.5260   -0.8368 C   0  0  0  0  0  0  0  0  0  0  0  0
    6.5779    8.9708   -0.8770 O   0  0  0  0  0  0  0  0  0  0  0  0
    5.2707   12.6414    0.6433 C   0  0  0  0  0  0  0  0  0  0  0  0
  1  2  1  0
  2  3  1  0
  4  3  1  1
  4  5  1  0
  5  6  2  0
  6  7  1  0
  7  8  2  0
  8  9  1  0
  9 10  2  0
  4 11  1  0
 11 12  1  1
 12 13  1  0
 13 14  1  0
 14 15  1  6
 15 16  1  0
 16 17  1  0
 16 18  1  0
 16 19  1  0
 19 20  1  1
 19 21  1  0
 14 22  1  0
 10  5  1  0
 22 11  1  0
M  END
>  <CHROM.0>  (3) 
80.53211197,-72.93809895,72.13460266,63.97008888,71.34611330,67.30460313
-168.01846961,69.48451570

>  <CHROM.1>  (3) 
-112.74713112,-72.09021170,158.83118980,-89.62053210,112.77677431,78.18023649
-53.39177429,175.01866182,5.05104200,12.49477126,0.84659405,-2.55665403,0.73644163
-1.46814606

>  <Name>  (3) 
denovo_401

>  <RI>  (3) 
-1.15655e+09

>  <Rbt.Current_Directory>  (3) 
/tmp/claude-0/-home-user-Rare-cancers/1af35c7f-7dc4-53ce-91d2-1631a2a10a85/scratchpad/smwork/cross/dock_metad-opened_v2-statematch

>  <Rbt.Executable>  (3) 
rbdock - v25.07-alpha

>  <Rbt.Library>  (3) 
libRbt.so (25.07, Buildalpha)

>  <Rbt.Parameter_File>  (3) 
/tmp/claude-0/-home-user-Rare-cancers/1af35c7f-7dc4-53ce-91d2-1631a2a10a85/scratchpad/rdroot/share/rDock/data/scripts/dock.prm

>  <Rbt.Receptor>  (3) 
rec.prm

>  <SCORE>  (3) 
-19.2189

>  <SCORE.INTER>  (3) 
-6.40526

>  <SCORE.INTER.CONST>  (3) 
1

>  <SCORE.INTER.POLAR>  (3) 
-1.69155

>  <SCORE.INTER.REPUL>  (3) 
0

>  <SCORE.INTER.ROT>  (3) 
7

>  <SCORE.INTER.VDW>  (3) 
-13.054

>  <SCORE.INTER.norm>  (3) 
-0.291148

>  <SCORE.INTRA>  (3) 
9.56816

>  <SCORE.INTRA.DIHEDRAL>  (3) 
14.9844

>  <SCORE.INTRA.DIHEDRAL.0>  (3) 
3.78927

>  <SCORE.INTRA.POLAR>  (3) 
0

>  <SCORE.INTRA.POLAR.0>  (3) 
0

>  <SCORE.INTRA.REPUL>  (3) 
0

>  <SCORE.INTRA.REPUL.0>  (3) 
0

>  <SCORE.INTRA.VDW>  (3) 
2.07594

>  <SCORE.INTRA.VDW.0>  (3) 
1.02728

>  <SCORE.INTRA.norm>  (3) 
0.434916

>  <SCORE.RESTR>  (3) 
0

>  <SCORE.RESTR.CAVITY>  (3) 
0

>  <SCORE.RESTR.norm>  (3) 
0

>  <SCORE.SYSTEM>  (3) 
-22.3818

>  <SCORE.SYSTEM.CONST>  (3) 
0

>  <SCORE.SYSTEM.DIHEDRAL>  (3) 
5.53278

>  <SCORE.SYSTEM.POLAR>  (3) 
-6.52239

>  <SCORE.SYSTEM.REPUL>  (3) 
0.00994142

>  <SCORE.SYSTEM.VDW>  (3) 
-3.02177

>  <SCORE.SYSTEM.norm>  (3) 
-1.01735

>  <SCORE.heavy>  (3) 
22

>  <SCORE.norm>  (3) 
-0.873586

$$$$
denovo_401
     RDKit          3D

 22 23  0  0  0  0  0  0  0  0999 V2000
    8.7983   12.4099   -2.9096 C   0  0  0  0  0  0  0  0  0  0  0  0
    8.7477   11.4141   -1.8965 O   0  0  0  0  0  0  0  0  0  0  0  0
    7.7466   10.4315   -2.1714 C   0  0  0  0  0  0  0  0  0  0  0  0
    7.1590    9.8838   -0.8524 C   0  0  2  0  0  0  0  0  0  0  0  0
    5.7955    9.2576   -1.1239 C   0  0  0  0  0  0  0  0  0  0  0  0
    4.9236    9.8615   -2.0427 C   0  0  0  0  0  0  0  0  0  0  0  0
    3.6697    9.3066   -2.3044 C   0  0  0  0  0  0  0  0  0  0  0  0
    3.2708    8.1429   -1.6512 C   0  0  0  0  0  0  0  0  0  0  0  0
    4.1250    7.5329   -0.7356 C   0  0  0  0  0  0  0  0  0  0  0  0
    5.3794    8.0861   -0.4720 C   0  0  0  0  0  0  0  0  0  0  0  0
    7.0854   10.9574    0.2632 C   0  0  2  0  0  0  0  0  0  0  0  0
    6.0380   10.6827    1.3473 C   0  0  0  0  0  0  0  0  0  0  0  0
    5.6447   12.0489    1.9175 C   0  0  0  0  0  0  0  0  0  0  0  0
    6.3448   13.1025    1.0549 C   0  0  2  0  0  0  0  0  0  0  0  0
    5.5458   14.3851    0.7662 C   0  0  0  0  0  0  0  0  0  0  0  0
    6.3152   15.6328    0.2118 C   0  0  0  0  0  0  0  0  0  0  0  0
    7.4006   16.0630    1.2195 C   0  0  0  0  0  0  0  0  0  0  0  0
    7.0304   15.1615   -1.0800 C   0  0  0  0  0  0  0  0  0  0  0  0
    5.3658   16.8299   -0.1100 C   0  0  1  0  0  0  0  0  0  0  0  0
    4.0663   16.4598   -0.8257 C   0  0  0  0  0  0  0  0  0  0  0  0
    4.9816   17.5136    1.0841 O   0  0  0  0  0  0  0  0  0  0  0  0
    6.6649   12.3427   -0.2391 C   0  0  0  0  0  0  0  0  0  0  0  0
  1  2  1  0
  2  3  1  0
  4  3  1  6
  4  5  1  0
  5  6  2  0
  6  7  1  0
  7  8  2  0
  8  9  1  0
  9 10  2  0
  4 11  1  0
 11 12  1  1
 12 13  1  0
 13 14  1  0
 14 15  1  6
 15 16  1  0
 16 17  1  0
 16 18  1  0
 16 19  1  0
 19 20  1  1
 19 21  1  0
 14 22  1  0
 10  5  1  0
 22 11  1  0
M  END
>  <CHROM.0>  (4) 
75.65176754,-75.27769049,-47.62289283,69.08206394,68.52961710,68.98974277
-167.66654709,172.29946753

>  <CHROM.1>  (4) 
-148.43628324,159.30057097,-38.50002160,156.16137206,164.78517764,-59.90639580
-43.12887285,163.84992660,6.04347251,12.29608021,-0.47172540,-1.64299392
0.36761925,0.24043827

>  <Name>  (4) 
denovo_401

>  <RI>  (4) 
-1.15655e+09

>  <Rbt.Current_Directory>  (4) 
/tmp/claude-0/-home-user-Rare-cancers/1af35c7f-7dc4-53ce-91d2-1631a2a10a85/scratchpad/smwork/cross/dock_metad-opened_v2-statematch

>  <Rbt.Executable>  (4) 
rbdock - v25.07-alpha

>  <Rbt.Library>  (4) 
libRbt.so (25.07, Buildalpha)

>  <Rbt.Parameter_File>  (4) 
/tmp/claude-0/-home-user-Rare-cancers/1af35c7f-7dc4-53ce-91d2-1631a2a10a85/scratchpad/rdroot/share/rDock/data/scripts/dock.prm

>  <Rbt.Receptor>  (4) 
rec.prm

>  <SCORE>  (4) 
-18.2022

>  <SCORE.INTER>  (4) 
-10.6995

>  <SCORE.INTER.CONST>  (4) 
1

>  <SCORE.INTER.POLAR>  (4) 
-0.585256

>  <SCORE.INTER.REPUL>  (4) 
0

>  <SCORE.INTER.ROT>  (4) 
7

>  <SCORE.INTER.VDW>  (4) 
-21.1096

>  <SCORE.INTER.norm>  (4) 
-0.486341

>  <SCORE.INTRA>  (4) 
8.96325

>  <SCORE.INTRA.DIHEDRAL>  (4) 
7.50545

>  <SCORE.INTRA.DIHEDRAL.0>  (4) 
3.78927

>  <SCORE.INTRA.POLAR>  (4) 
0

>  <SCORE.INTRA.POLAR.0>  (4) 
0

>  <SCORE.INTRA.REPUL>  (4) 
0

>  <SCORE.INTRA.REPUL.0>  (4) 
0

>  <SCORE.INTRA.VDW>  (4) 
5.21052

>  <SCORE.INTRA.VDW.0>  (4) 
1.02728

>  <SCORE.INTRA.norm>  (4) 
0.407421

>  <SCORE.RESTR>  (4) 
0.713185

>  <SCORE.RESTR.CAVITY>  (4) 
0.713185

>  <SCORE.RESTR.norm>  (4) 
0.0324175

>  <SCORE.SYSTEM>  (4) 
-17.1791

>  <SCORE.SYSTEM.CONST>  (4) 
0

>  <SCORE.SYSTEM.DIHEDRAL>  (4) 
5.21263

>  <SCORE.SYSTEM.POLAR>  (4) 
-5.03965

>  <SCORE.SYSTEM.REPUL>  (4) 
0.095708

>  <SCORE.SYSTEM.VDW>  (4) 
-3.12917

>  <SCORE.SYSTEM.norm>  (4) 
-0.78087

>  <SCORE.heavy>  (4) 
22

>  <SCORE.norm>  (4) 
-0.827373

$$$$
denovo_401
     RDKit          3D

 22 23  0  0  0  0  0  0  0  0999 V2000
    3.5888   12.7610    5.7751 C   0  0  0  0  0  0  0  0  0  0  0  0
    4.0402   13.4035    4.5903 O   0  0  0  0  0  0  0  0  0  0  0  0
    4.7790   12.5102    3.7539 C   0  0  0  0  0  0  0  0  0  0  0  0
    5.3373   13.2649    2.5276 C   0  0  2  0  0  0  0  0  0  0  0  0
    4.2120   14.0410    1.8519 C   0  0  0  0  0  0  0  0  0  0  0  0
    2.8772   13.6843    2.0963 C   0  0  0  0  0  0  0  0  0  0  0  0
    1.8316   14.3795    1.4862 C   0  0  0  0  0  0  0  0  0  0  0  0
    2.1063   15.4384    0.6240 C   0  0  0  0  0  0  0  0  0  0  0  0
    3.4265   15.8031    0.3707 C   0  0  0  0  0  0  0  0  0  0  0  0
    4.4738   15.1092    0.9794 C   0  0  0  0  0  0  0  0  0  0  0  0
    6.0695   12.3310    1.5304 C   0  0  2  0  0  0  0  0  0  0  0  0
    7.0320   13.0440    0.5751 C   0  0  0  0  0  0  0  0  0  0  0  0
    7.1186   12.1668   -0.6777 C   0  0  0  0  0  0  0  0  0  0  0  0
    6.0905   11.0461   -0.5006 C   0  0  2  0  0  0  0  0  0  0  0  0
    5.3329   10.6121   -1.7673 C   0  0  0  0  0  0  0  0  0  0  0  0
    6.0252    9.5941   -2.7371 C   0  0  0  0  0  0  0  0  0  0  0  0
    5.8218    8.1578   -2.2132 C   0  0  0  0  0  0  0  0  0  0  0  0
    5.2812    9.7123   -4.0917 C   0  0  0  0  0  0  0  0  0  0  0  0
    7.5451    9.8914   -2.9350 C   0  0  1  0  0  0  0  0  0  0  0  0
    7.8729   11.2732   -3.5017 C   0  0  0  0  0  0  0  0  0  0  0  0
    8.2516    9.7911   -1.6973 O   0  0  0  0  0  0  0  0  0  0  0  0
    5.1316   11.6110    0.5556 C   0  0  0  0  0  0  0  0  0  0  0  0
  1  2  1  0
  2  3  1  0
  4  3  1  1
  4  5  1  0
  5  6  2  0
  6  7  1  0
  7  8  2  0
  8  9  1  0
  9 10  2  0
  4 11  1  0
 11 12  1  6
 12 13  1  0
 13 14  1  0
 14 15  1  6
 15 16  1  0
 16 17  1  0
 16 18  1  0
 16 19  1  0
 19 20  1  1
 19 21  1  0
 14 22  1  0
 10  5  1  0
 22 11  1  0
M  END
>  <CHROM.0>  (5) 
165.61415734,-72.88964051,65.03361440,68.10954484,-58.41332792,67.78675924
65.37167762,69.85387539

>  <CHROM.1>  (5) 
-176.01743449,-51.07287712,-19.49732534,-160.14014772,82.51778792,82.24026659
-59.17143958,61.69559229,5.24519129,12.18302632,0.29008868,-2.28657379,0.87886859
-1.60134097

>  <Name>  (5) 
denovo_401

>  <RI>  (5) 
-1.15655e+09

>  <Rbt.Current_Directory>  (5) 
/tmp/claude-0/-home-user-Rare-cancers/1af35c7f-7dc4-53ce-91d2-1631a2a10a85/scratchpad/smwork/cross/dock_metad-opened_v2-statematch

>  <Rbt.Executable>  (5) 
rbdock - v25.07-alpha

>  <Rbt.Library>  (5) 
libRbt.so (25.07, Buildalpha)

>  <Rbt.Parameter_File>  (5) 
/tmp/claude-0/-home-user-Rare-cancers/1af35c7f-7dc4-53ce-91d2-1631a2a10a85/scratchpad/rdroot/share/rDock/data/scripts/dock.prm

>  <Rbt.Receptor>  (5) 
rec.prm

>  <SCORE>  (5) 
-17.8920

>  <SCORE.INTER>  (5) 
-5.62506

>  <SCORE.INTER.CONST>  (5) 
1

>  <SCORE.INTER.POLAR>  (5) 
-0.894427

>  <SCORE.INTER.REPUL>  (5) 
0

>  <SCORE.INTER.ROT>  (5) 
7

>  <SCORE.INTER.VDW>  (5) 
-14.984

>  <SCORE.INTER.norm>  (5) 
-0.255684

>  <SCORE.INTRA>  (5) 
4.31483

>  <SCORE.INTRA.DIHEDRAL>  (5) 
2.7533

>  <SCORE.INTRA.DIHEDRAL.0>  (5) 
3.78927

>  <SCORE.INTRA.POLAR>  (5) 
0

>  <SCORE.INTRA.POLAR.0>  (5) 
0

>  <SCORE.INTRA.REPUL>  (5) 
0

>  <SCORE.INTRA.REPUL.0>  (5) 
0

>  <SCORE.INTRA.VDW>  (5) 
2.93818

>  <SCORE.INTRA.VDW.0>  (5) 
1.02728

>  <SCORE.INTRA.norm>  (5) 
0.196129

>  <SCORE.RESTR>  (5) 
0

>  <SCORE.RESTR.CAVITY>  (5) 
0

>  <SCORE.RESTR.norm>  (5) 
0

>  <SCORE.SYSTEM>  (5) 
-16.5818

>  <SCORE.SYSTEM.CONST>  (5) 
0

>  <SCORE.SYSTEM.DIHEDRAL>  (5) 
3.2232

>  <SCORE.SYSTEM.POLAR>  (5) 
-5.44066

>  <SCORE.SYSTEM.REPUL>  (5) 
0.103936

>  <SCORE.SYSTEM.VDW>  (5) 
-0.214865

>  <SCORE.SYSTEM.norm>  (5) 
-0.753719

>  <SCORE.heavy>  (5) 
22

>  <SCORE.norm>  (5) 
-0.813275

$$$$
denovo_401
     RDKit          3D

 22 23  0  0  0  0  0  0  0  0999 V2000
    4.5981    9.0552   -4.3515 C   0  0  0  0  0  0  0  0  0  0  0  0
    5.1662    9.4447   -3.1081 O   0  0  0  0  0  0  0  0  0  0  0  0
    6.5524    9.1044   -3.0313 C   0  0  0  0  0  0  0  0  0  0  0  0
    7.2336    9.8916   -1.8906 C   0  0  2  0  0  0  0  0  0  0  0  0
    6.9459    9.2083   -0.5582 C   0  0  0  0  0  0  0  0  0  0  0  0
    5.7513    8.4924   -0.3876 C   0  0  0  0  0  0  0  0  0  0  0  0
    5.4665    7.8615    0.8246 C   0  0  0  0  0  0  0  0  0  0  0  0
    6.3705    7.9387    1.8814 C   0  0  0  0  0  0  0  0  0  0  0  0
    7.5600    8.6469    1.7274 C   0  0  0  0  0  0  0  0  0  0  0  0
    7.8468    9.2790    0.5161 C   0  0  0  0  0  0  0  0  0  0  0  0
    6.8275   11.3873   -1.8679 C   0  0  2  0  0  0  0  0  0  0  0  0
    7.4938   12.2475   -2.9467 C   0  0  0  0  0  0  0  0  0  0  0  0
    7.5321   13.6748   -2.3919 C   0  0  0  0  0  0  0  0  0  0  0  0
    7.0367   13.5968   -0.9453 C   0  0  2  0  0  0  0  0  0  0  0  0
    7.7419   14.5175    0.0655 C   0  0  0  0  0  0  0  0  0  0  0  0
    6.9560   14.9548    1.3489 C   0  0  0  0  0  0  0  0  0  0  0  0
    6.8984   13.7806    2.3473 C   0  0  0  0  0  0  0  0  0  0  0  0
    7.7882   16.0883    2.0008 C   0  0  0  0  0  0  0  0  0  0  0  0
    5.5166   15.4667    1.0268 C   0  0  1  0  0  0  0  0  0  0  0  0
    5.4337   16.5528   -0.0462 C   0  0  0  0  0  0  0  0  0  0  0  0
    4.6822   14.3980    0.5765 O   0  0  0  0  0  0  0  0  0  0  0  0
    7.2342   12.1186   -0.5843 C   0  0  0  0  0  0  0  0  0  0  0  0
  1  2  1  0
  2  3  1  0
  4  3  1  6
  4  5  1  0
  5  6  2  0
  6  7  1  0
  7  8  2  0
  8  9  1  0
  9 10  2  0
  4 11  1  0
 11 12  1  6
 12 13  1  0
 13 14  1  0
 14 15  1  1
 15 16  1  0
 16 17  1  0
 16 18  1  0
 16 19  1  0
 19 20  1  6
 19 21  1  0
 14 22  1  0
 10  5  1  0
 22 11  1  0
M  END
>  <CHROM.0>  (6) 
-40.99209849,-75.81098579,72.02598356,174.23604627,-60.64030529,67.48775435
-168.71708125,70.37303760

>  <CHROM.1>  (6) 
163.11083786,80.57023654,-29.69701011,-75.92821803,154.40010197,75.51118066
-51.98053680,71.62613087,6.53423364,11.78986647,-0.47153032,1.97136162,1.41716483
3.06198756

>  <Name>  (6) 
denovo_401

>  <RI>  (6) 
-1.15655e+09

>  <Rbt.Current_Directory>  (6) 
/tmp/claude-0/-home-user-Rare-cancers/1af35c7f-7dc4-53ce-91d2-1631a2a10a85/scratchpad/smwork/cross/dock_metad-opened_v2-statematch

>  <Rbt.Executable>  (6) 
rbdock - v25.07-alpha

>  <Rbt.Library>  (6) 
libRbt.so (25.07, Buildalpha)

>  <Rbt.Parameter_File>  (6) 
/tmp/claude-0/-home-user-Rare-cancers/1af35c7f-7dc4-53ce-91d2-1631a2a10a85/scratchpad/rdroot/share/rDock/data/scripts/dock.prm

>  <Rbt.Receptor>  (6) 
rec.prm

>  <SCORE>  (6) 
-17.5636

>  <SCORE.INTER>  (6) 
-2.89245

>  <SCORE.INTER.CONST>  (6) 
1

>  <SCORE.INTER.POLAR>  (6) 
0

>  <SCORE.INTER.REPUL>  (6) 
0

>  <SCORE.INTER.ROT>  (6) 
7

>  <SCORE.INTER.VDW>  (6) 
-15.2924

>  <SCORE.INTER.norm>  (6) 
-0.131475

>  <SCORE.INTRA>  (6) 
3.05873

>  <SCORE.INTRA.DIHEDRAL>  (6) 
4.91237

>  <SCORE.INTRA.DIHEDRAL.0>  (6) 
3.78927

>  <SCORE.INTRA.POLAR>  (6) 
0

>  <SCORE.INTRA.POLAR.0>  (6) 
0

>  <SCORE.INTRA.REPUL>  (6) 
0

>  <SCORE.INTRA.REPUL.0>  (6) 
0

>  <SCORE.INTRA.VDW>  (6) 
0.602547

>  <SCORE.INTRA.VDW.0>  (6) 
1.02728

>  <SCORE.INTRA.norm>  (6) 
0.139033

>  <SCORE.RESTR>  (6) 
0

>  <SCORE.RESTR.CAVITY>  (6) 
0

>  <SCORE.RESTR.norm>  (6) 
0

>  <SCORE.SYSTEM>  (6) 
-17.7299

>  <SCORE.SYSTEM.CONST>  (6) 
0

>  <SCORE.SYSTEM.DIHEDRAL>  (6) 
5.14785

>  <SCORE.SYSTEM.POLAR>  (6) 
-5.64012

>  <SCORE.SYSTEM.VDW>  (6) 
-1.12738

>  <SCORE.SYSTEM.norm>  (6) 
-0.805903

>  <SCORE.heavy>  (6) 
22

>  <SCORE.norm>  (6) 
-0.798345

$$$$
denovo_401
     RDKit          3D

 22 23  0  0  0  0  0  0  0  0999 V2000
    3.9742    5.7897    0.6515 C   0  0  0  0  0  0  0  0  0  0  0  0
    4.0621    7.1962    0.4659 O   0  0  0  0  0  0  0  0  0  0  0  0
    4.6755    7.5267   -0.7822 C   0  0  0  0  0  0  0  0  0  0  0  0
    4.8258    9.0580   -0.9148 C   0  0  2  0  0  0  0  0  0  0  0  0
    4.7797    9.4483   -2.3881 C   0  0  0  0  0  0  0  0  0  0  0  0
    5.9374    9.9333   -3.0154 C   0  0  0  0  0  0  0  0  0  0  0  0
    5.9170   10.2988   -4.3624 C   0  0  0  0  0  0  0  0  0  0  0  0
    4.7403   10.1856   -5.0991 C   0  0  0  0  0  0  0  0  0  0  0  0
    3.5828    9.7069   -4.4897 C   0  0  0  0  0  0  0  0  0  0  0  0
    3.6007    9.3410   -3.1425 C   0  0  0  0  0  0  0  0  0  0  0  0
    6.1004    9.5985   -0.2177 C   0  0  2  0  0  0  0  0  0  0  0  0
    6.0950    9.4756    1.3096 C   0  0  0  0  0  0  0  0  0  0  0  0
    7.0112   10.5871    1.8309 C   0  0  0  0  0  0  0  0  0  0  0  0
    7.4072   11.4341    0.6185 C   0  0  2  0  0  0  0  0  0  0  0  0
    7.5094   12.9511    0.8531 C   0  0  0  0  0  0  0  0  0  0  0  0
    6.3944   13.6498    1.7045 C   0  0  0  0  0  0  0  0  0  0  0  0
    5.0099   13.1140    1.2862 C   0  0  0  0  0  0  0  0  0  0  0  0
    6.6412   13.2237    3.1741 C   0  0  0  0  0  0  0  0  0  0  0  0
    6.4345   15.2061    1.5859 C   0  0  1  0  0  0  0  0  0  0  0  0
    7.7618   15.8576    1.9757 C   0  0  0  0  0  0  0  0  0  0  0  0
    6.1640   15.6244    0.2469 O   0  0  0  0  0  0  0  0  0  0  0  0
    6.3212   11.1021   -0.4133 C   0  0  0  0  0  0  0  0  0  0  0  0
  1  2  1  0
  2  3  1  0
  4  3  1  6
  4  5  1  0
  5  6  2  0
  6  7  1  0
  7  8  2  0
  8  9  1  0
  9 10  2  0
  4 11  1  0
 11 12  1  1
 12 13  1  0
 13 14  1  0
 14 15  1  1
 15 16  1  0
 16 17  1  0
 16 18  1  0
 16 19  1  0
 19 20  1  6
 19 21  1  0
 14 22  1  0
 10  5  1  0
 22 11  1  0
M  END
>  <CHROM.0>  (7) 
164.73629772,-75.60814768,-48.39150176,65.63146554,70.33623351,67.56319465
-168.00375229,70.74435893

>  <CHROM.1>  (7) 
-176.84724255,-151.11033224,-111.19653823,-67.02262909,-42.96597970,-43.26600250
-57.05887815,65.90011699,5.68251601,10.96187408,-0.32450208,-3.08559117,-1.25069170
-0.94542421

>  <Name>  (7) 
denovo_401

>  <RI>  (7) 
-1.15655e+09

>  <Rbt.Current_Directory>  (7) 
/tmp/claude-0/-home-user-Rare-cancers/1af35c7f-7dc4-53ce-91d2-1631a2a10a85/scratchpad/smwork/cross/dock_metad-opened_v2-statematch

>  <Rbt.Executable>  (7) 
rbdock - v25.07-alpha

>  <Rbt.Library>  (7) 
libRbt.so (25.07, Buildalpha)

>  <Rbt.Parameter_File>  (7) 
/tmp/claude-0/-home-user-Rare-cancers/1af35c7f-7dc4-53ce-91d2-1631a2a10a85/scratchpad/rdroot/share/rDock/data/scripts/dock.prm

>  <Rbt.Receptor>  (7) 
rec.prm

>  <SCORE>  (7) 
-17.4222

>  <SCORE.INTER>  (7) 
-6.47407

>  <SCORE.INTER.CONST>  (7) 
1

>  <SCORE.INTER.POLAR>  (7) 
-1.00963

>  <SCORE.INTER.REPUL>  (7) 
0

>  <SCORE.INTER.ROT>  (7) 
7

>  <SCORE.INTER.VDW>  (7) 
-15.4413

>  <SCORE.INTER.norm>  (7) 
-0.294276

>  <SCORE.INTRA>  (7) 
7.25889

>  <SCORE.INTRA.DIHEDRAL>  (7) 
2.1636

>  <SCORE.INTRA.DIHEDRAL.0>  (7) 
3.78927

>  <SCORE.INTRA.POLAR>  (7) 
0

>  <SCORE.INTRA.POLAR.0>  (7) 
0

>  <SCORE.INTRA.REPUL>  (7) 
0

>  <SCORE.INTRA.REPUL.0>  (7) 
0

>  <SCORE.INTRA.VDW>  (7) 
6.17709

>  <SCORE.INTRA.VDW.0>  (7) 
1.02728

>  <SCORE.INTRA.norm>  (7) 
0.32995

>  <SCORE.RESTR>  (7) 
0.00427057

>  <SCORE.RESTR.CAVITY>  (7) 
0.00427057

>  <SCORE.RESTR.norm>  (7) 
0.000194117

>  <SCORE.SYSTEM>  (7) 
-18.2113

>  <SCORE.SYSTEM.CONST>  (7) 
0

>  <SCORE.SYSTEM.DIHEDRAL>  (7) 
5.1512

>  <SCORE.SYSTEM.POLAR>  (7) 
-5.67062

>  <SCORE.SYSTEM.REPUL>  (7) 
0.112996

>  <SCORE.SYSTEM.VDW>  (7) 
-2.07174

>  <SCORE.SYSTEM.norm>  (7) 
-0.827785

>  <SCORE.heavy>  (7) 
22

>  <SCORE.norm>  (7) 
-0.791918

$$$$
denovo_401
     RDKit          3D

 22 23  0  0  0  0  0  0  0  0999 V2000
    9.4309   14.4872   -2.0742 C   0  0  0  0  0  0  0  0  0  0  0  0
    9.2781   13.0918   -1.8508 O   0  0  0  0  0  0  0  0  0  0  0  0
    8.3826   12.5008   -2.7953 C   0  0  0  0  0  0  0  0  0  0  0  0
    8.0386   11.0555   -2.3736 C   0  0  2  0  0  0  0  0  0  0  0  0
    6.8157   10.5766   -3.1484 C   0  0  0  0  0  0  0  0  0  0  0  0
    6.3477    9.2661   -2.9679 C   0  0  0  0  0  0  0  0  0  0  0  0
    5.2316    8.8062   -3.6689 C   0  0  0  0  0  0  0  0  0  0  0  0
    4.5701    9.6486   -4.5592 C   0  0  0  0  0  0  0  0  0  0  0  0
    5.0239   10.9516   -4.7498 C   0  0  0  0  0  0  0  0  0  0  0  0
    6.1401   11.4138   -4.0501 C   0  0  0  0  0  0  0  0  0  0  0  0
    7.8424   10.9074   -0.8432 C   0  0  2  0  0  0  0  0  0  0  0  0
    7.5407    9.4811   -0.3720 C   0  0  0  0  0  0  0  0  0  0  0  0
    6.7511    9.6203    0.9333 C   0  0  0  0  0  0  0  0  0  0  0  0
    6.4687   11.1137    1.1182 C   0  0  2  0  0  0  0  0  0  0  0  0
    5.0940   11.4782    1.7049 C   0  0  0  0  0  0  0  0  0  0  0  0
    5.0035   12.6932    2.6907 C   0  0  0  0  0  0  0  0  0  0  0  0
    6.3711   12.9145    3.3685 C   0  0  0  0  0  0  0  0  0  0  0  0
    4.7026   13.9377    1.8172 C   0  0  0  0  0  0  0  0  0  0  0  0
    3.8858   12.5125    3.7658 C   0  0  1  0  0  0  0  0  0  0  0  0
    4.1844   13.1344    5.1304 C   0  0  0  0  0  0  0  0  0  0  0  0
    2.6550   13.0896    3.3264 O   0  0  0  0  0  0  0  0  0  0  0  0
    6.6388   11.6825   -0.2967 C   0  0  0  0  0  0  0  0  0  0  0  0
  1  2  1  0
  2  3  1  0
  4  3  1  1
  4  5  1  0
  5  6  2  0
  6  7  1  0
  7  8  2  0
  8  9  1  0
  9 10  2  0
  4 11  1  0
 11 12  1  6
 12 13  1  0
 13 14  1  0
 14 15  1  6
 15 16  1  0
 16 17  1  0
 16 18  1  0
 16 19  1  0
 19 20  1  1
 19 21  1  0
 14 22  1  0
 10  5  1  0
 22 11  1  0
M  END
>  <CHROM.0>  (8) 
162.97392118,-76.02072203,69.31348695,65.66655781,66.84365894,68.14986244
-168.97766390,71.09342098

>  <CHROM.1>  (8) 
-169.68660168,164.56417098,177.52107548,-178.25153063,143.29514420,-25.05882361
147.13156591,179.49238576,6.19384170,11.64037718,-0.34197214,-1.19235153
0.53350012,1.08841024

>  <Name>  (8) 
denovo_401

>  <RI>  (8) 
-1.15655e+09

>  <Rbt.Current_Directory>  (8) 
/tmp/claude-0/-home-user-Rare-cancers/1af35c7f-7dc4-53ce-91d2-1631a2a10a85/scratchpad/smwork/cross/dock_metad-opened_v2-statematch

>  <Rbt.Executable>  (8) 
rbdock - v25.07-alpha

>  <Rbt.Library>  (8) 
libRbt.so (25.07, Buildalpha)

>  <Rbt.Parameter_File>  (8) 
/tmp/claude-0/-home-user-Rare-cancers/1af35c7f-7dc4-53ce-91d2-1631a2a10a85/scratchpad/rdroot/share/rDock/data/scripts/dock.prm

>  <Rbt.Receptor>  (8) 
rec.prm

>  <SCORE>  (8) 
-14.5290

>  <SCORE.INTER>  (8) 
-7.41583

>  <SCORE.INTER.CONST>  (8) 
1

>  <SCORE.INTER.POLAR>  (8) 
-0.951639

>  <SCORE.INTER.REPUL>  (8) 
0

>  <SCORE.INTER.ROT>  (8) 
7

>  <SCORE.INTER.VDW>  (8) 
-16.5803

>  <SCORE.INTER.norm>  (8) 
-0.337083

>  <SCORE.INTRA>  (8) 
14.9086

>  <SCORE.INTRA.DIHEDRAL>  (8) 
10.4972

>  <SCORE.INTRA.DIHEDRAL.0>  (8) 
3.78927

>  <SCORE.INTRA.POLAR>  (8) 
0

>  <SCORE.INTRA.POLAR.0>  (8) 
0

>  <SCORE.INTRA.REPUL>  (8) 
0

>  <SCORE.INTRA.REPUL.0>  (8) 
0

>  <SCORE.INTRA.VDW>  (8) 
9.66003

>  <SCORE.INTRA.VDW.0>  (8) 
1.02728

>  <SCORE.INTRA.norm>  (8) 
0.677666

>  <SCORE.RESTR>  (8) 
0

>  <SCORE.RESTR.CAVITY>  (8) 
0

>  <SCORE.RESTR.norm>  (8) 
0

>  <SCORE.SYSTEM>  (8) 
-22.0219

>  <SCORE.SYSTEM.CONST>  (8) 
0

>  <SCORE.SYSTEM.DIHEDRAL>  (8) 
4.92287

>  <SCORE.SYSTEM.POLAR>  (8) 
-6.58101

>  <SCORE.SYSTEM.VDW>  (8) 
-2.10785

>  <SCORE.SYSTEM.norm>  (8) 
-1.00099

>  <SCORE.heavy>  (8) 
22

>  <SCORE.norm>  (8) 
-0.660411

$$$$
denovo_401
     RDKit          3D

 22 23  0  0  0  0  0  0  0  0999 V2000
    1.2834   14.9327    0.8476 C   0  0  0  0  0  0  0  0  0  0  0  0
    1.9259   13.9452    1.6428 O   0  0  0  0  0  0  0  0  0  0  0  0
    3.3480   14.0047    1.5115 C   0  0  0  0  0  0  0  0  0  0  0  0
    4.0028   12.8141    2.2455 C   0  0  2  0  0  0  0  0  0  0  0  0
    3.8930   13.0222    3.7521 C   0  0  0  0  0  0  0  0  0  0  0  0
    2.6683   13.4168    4.3119 C   0  0  0  0  0  0  0  0  0  0  0  0
    2.5461   13.6155    5.6882 C   0  0  0  0  0  0  0  0  0  0  0  0
    3.6453   13.4238    6.5219 C   0  0  0  0  0  0  0  0  0  0  0  0
    4.8678   13.0334    5.9804 C   0  0  0  0  0  0  0  0  0  0  0  0
    4.9926   12.8343    4.6043 C   0  0  0  0  0  0  0  0  0  0  0  0
    5.4690   12.5707    1.8053 C   0  0  2  0  0  0  0  0  0  0  0  0
    6.3568   13.8194    1.8195 C   0  0  0  0  0  0  0  0  0  0  0  0
    7.4592   13.5717    0.7851 C   0  0  0  0  0  0  0  0  0  0  0  0
    7.1085   12.2612    0.0754 C   0  0  2  0  0  0  0  0  0  0  0  0
    7.4058   12.2042   -1.4330 C   0  0  0  0  0  0  0  0  0  0  0  0
    7.5669   10.7990   -2.1078 C   0  0  0  0  0  0  0  0  0  0  0  0
    8.1494   10.9680   -3.5259 C   0  0  0  0  0  0  0  0  0  0  0  0
    8.6089   10.0278   -1.2582 C   0  0  0  0  0  0  0  0  0  0  0  0
    6.2259   10.0010   -2.1615 C   0  0  1  0  0  0  0  0  0  0  0  0
    5.1963   10.5193   -3.1660 C   0  0  0  0  0  0  0  0  0  0  0  0
    6.4581    8.6325   -2.4999 O   0  0  0  0  0  0  0  0  0  0  0  0
    5.6083   12.1000    0.3537 C   0  0  0  0  0  0  0  0  0  0  0  0
  1  2  1  0
  2  3  1  0
  4  3  1  6
  4  5  1  0
  5  6  2  0
  6  7  1  0
  7  8  2  0
  8  9  1  0
  9 10  2  0
  4 11  1  0
 11 12  1  6
 12 13  1  0
 13 14  1  0
 14 15  1  6
 15 16  1  0
 16 17  1  0
 16 18  1  0
 16 19  1  0
 19 20  1  6
 19 21  1  0
 14 22  1  0
 10  5  1  0
 22 11  1  0
M  END
>  <CHROM.0>  (9) 
-32.09674612,-75.84759706,60.42165307,72.00366770,-175.76713080,69.87701592
74.11976458,175.11288037

>  <CHROM.1>  (9) 
-172.98521621,-72.06782842,46.59894100,49.88688065,158.33945411,-168.00820896
72.20865974,71.54687309,5.22879072,12.34687112,1.04630494,2.10155319,-0.38210014
1.34640344

>  <Name>  (9) 
denovo_401

>  <RI>  (9) 
-1.15655e+09

>  <Rbt.Current_Directory>  (9) 
/tmp/claude-0/-home-user-Rare-cancers/1af35c7f-7dc4-53ce-91d2-1631a2a10a85/scratchpad/smwork/cross/dock_metad-opened_v2-statematch

>  <Rbt.Executable>  (9) 
rbdock - v25.07-alpha

>  <Rbt.Library>  (9) 
libRbt.so (25.07, Buildalpha)

>  <Rbt.Parameter_File>  (9) 
/tmp/claude-0/-home-user-Rare-cancers/1af35c7f-7dc4-53ce-91d2-1631a2a10a85/scratchpad/rdroot/share/rDock/data/scripts/dock.prm

>  <Rbt.Receptor>  (9) 
rec.prm

>  <SCORE>  (9) 
-14.5135

>  <SCORE.INTER>  (9) 
-5.21743

>  <SCORE.INTER.CONST>  (9) 
1

>  <SCORE.INTER.POLAR>  (9) 
-0.72177

>  <SCORE.INTER.REPUL>  (9) 
0

>  <SCORE.INTER.ROT>  (9) 
7

>  <SCORE.INTER.VDW>  (9) 
-15.1634

>  <SCORE.INTER.norm>  (9) 
-0.237156

>  <SCORE.INTRA>  (9) 
3.7752

>  <SCORE.INTRA.DIHEDRAL>  (9) 
1.6732

>  <SCORE.INTRA.DIHEDRAL.0>  (9) 
3.78927

>  <SCORE.INTRA.POLAR>  (9) 
0

>  <SCORE.INTRA.POLAR.0>  (9) 
0

>  <SCORE.INTRA.REPUL>  (9) 
0

>  <SCORE.INTRA.REPUL.0>  (9) 
0

>  <SCORE.INTRA.VDW>  (9) 
2.9386

>  <SCORE.INTRA.VDW.0>  (9) 
1.02728

>  <SCORE.INTRA.norm>  (9) 
0.1716

>  <SCORE.RESTR>  (9) 
0

>  <SCORE.RESTR.CAVITY>  (9) 
0

>  <SCORE.RESTR.norm>  (9) 
0

>  <SCORE.SYSTEM>  (9) 
-13.0713

>  <SCORE.SYSTEM.CONST>  (9) 
0

>  <SCORE.SYSTEM.DIHEDRAL>  (9) 
6.73533

>  <SCORE.SYSTEM.POLAR>  (9) 
-4.78258

>  <SCORE.SYSTEM.REPUL>  (9) 
0.129687

>  <SCORE.SYSTEM.VDW>  (9) 
-0.826592

>  <SCORE.SYSTEM.norm>  (9) 
-0.594148

>  <SCORE.heavy>  (9) 
22

>  <SCORE.norm>  (9) 
-0.659704

$$$$
denovo_401
     RDKit          3D

 22 23  0  0  0  0  0  0  0  0999 V2000
    7.4306   11.8972   -4.0001 C   0  0  0  0  0  0  0  0  0  0  0  0
    7.1973   11.9042   -2.5979 O   0  0  0  0  0  0  0  0  0  0  0  0
    8.3386   11.4442   -1.8705 C   0  0  0  0  0  0  0  0  0  0  0  0
    7.9561   11.1567   -0.4021 C   0  0  2  0  0  0  0  0  0  0  0  0
    6.7970   10.1667   -0.3626 C   0  0  0  0  0  0  0  0  0  0  0  0
    6.8518    9.0665    0.5065 C   0  0  0  0  0  0  0  0  0  0  0  0
    5.8030    8.1465    0.5570 C   0  0  0  0  0  0  0  0  0  0  0  0
    4.6876    8.3135   -0.2603 C   0  0  0  0  0  0  0  0  0  0  0  0
    4.6196    9.4001   -1.1291 C   0  0  0  0  0  0  0  0  0  0  0  0
    5.6673   10.3213   -1.1816 C   0  0  0  0  0  0  0  0  0  0  0  0
    7.6377   12.4452    0.3984 C   0  0  2  0  0  0  0  0  0  0  0  0
    7.0739   12.2031    1.8024 C   0  0  0  0  0  0  0  0  0  0  0  0
    6.2339   13.4377    2.1442 C   0  0  0  0  0  0  0  0  0  0  0  0
    6.1908   14.3025    0.8816 C   0  0  2  0  0  0  0  0  0  0  0  0
    4.8597   15.0176    0.5924 C   0  0  0  0  0  0  0  0  0  0  0  0
    4.8911   16.3359   -0.2545 C   0  0  0  0  0  0  0  0  0  0  0  0
    3.4760   16.9461   -0.3173 C   0  0  0  0  0  0  0  0  0  0  0  0
    5.7983   17.3260    0.5195 C   0  0  0  0  0  0  0  0  0  0  0  0
    5.4518   16.1118   -1.6943 C   0  0  1  0  0  0  0  0  0  0  0  0
    5.4956   17.3573   -2.5802 C   0  0  0  0  0  0  0  0  0  0  0  0
    6.7877   15.6074   -1.6505 O   0  0  0  0  0  0  0  0  0  0  0  0
    6.5454   13.3127   -0.2359 C   0  0  0  0  0  0  0  0  0  0  0  0
  1  2  1  0
  2  3  1  0
  4  3  1  6
  4  5  1  0
  5  6  2  0
  6  7  1  0
  7  8  2  0
  8  9  1  0
  9 10  2  0
  4 11  1  0
 11 12  1  1
 12 13  1  0
 13 14  1  0
 14 15  1  6
 15 16  1  0
 16 17  1  0
 16 18  1  0
 16 19  1  0
 19 20  1  6
 19 21  1  0
 14 22  1  0
 10  5  1  0
 22 11  1  0
M  END
>  <CHROM.0>  (10) 
-40.89395116,-75.66411758,70.98133059,-55.30648448,70.79927495,67.42177736
-166.18897201,169.72361940

>  <CHROM.1>  (10) 
-167.07833387,55.54956541,133.13275361,172.23759509,154.13616581,-175.07672602
179.36840810,169.39199956,6.18416965,12.93691425,-0.55827560,-1.13248381
1.22229920,-0.44674728

>  <Name>  (10) 
denovo_401

>  <RI>  (10) 
-1.15655e+09

>  <Rbt.Current_Directory>  (10) 
/tmp/claude-0/-home-user-Rare-cancers/1af35c7f-7dc4-53ce-91d2-1631a2a10a85/scratchpad/smwork/cross/dock_metad-opened_v2-statematch

>  <Rbt.Executable>  (10) 
rbdock - v25.07-alpha

>  <Rbt.Library>  (10) 
libRbt.so (25.07, Buildalpha)

>  <Rbt.Parameter_File>  (10) 
/tmp/claude-0/-home-user-Rare-cancers/1af35c7f-7dc4-53ce-91d2-1631a2a10a85/scratchpad/rdroot/share/rDock/data/scripts/dock.prm

>  <Rbt.Receptor>  (10) 
rec.prm

>  <SCORE>  (10) 
-14.0775

>  <SCORE.INTER>  (10) 
-3.6424

>  <SCORE.INTER.CONST>  (10) 
1

>  <SCORE.INTER.POLAR>  (10) 
0

>  <SCORE.INTER.REPUL>  (10) 
0

>  <SCORE.INTER.ROT>  (10) 
7

>  <SCORE.INTER.VDW>  (10) 
-16.0424

>  <SCORE.INTER.norm>  (10) 
-0.165564

>  <SCORE.INTRA>  (10) 
3.72823

>  <SCORE.INTRA.DIHEDRAL>  (10) 
1.40889

>  <SCORE.INTRA.DIHEDRAL.0>  (10) 
3.78927

>  <SCORE.INTRA.POLAR>  (10) 
0

>  <SCORE.INTRA.POLAR.0>  (10) 
0

>  <SCORE.INTRA.REPUL>  (10) 
0

>  <SCORE.INTRA.REPUL.0>  (10) 
0

>  <SCORE.INTRA.VDW>  (10) 
3.02379

>  <SCORE.INTRA.VDW.0>  (10) 
1.02728

>  <SCORE.INTRA.norm>  (10) 
0.169465

>  <SCORE.RESTR>  (10) 
0.429119

>  <SCORE.RESTR.CAVITY>  (10) 
0.429119

>  <SCORE.RESTR.norm>  (10) 
0.0195054

>  <SCORE.SYSTEM>  (10) 
-14.5925

>  <SCORE.SYSTEM.CONST>  (10) 
0

>  <SCORE.SYSTEM.DIHEDRAL>  (10) 
5.80413

>  <SCORE.SYSTEM.POLAR>  (10) 
-5.09167

>  <SCORE.SYSTEM.REPUL>  (10) 
0.278897

>  <SCORE.SYSTEM.VDW>  (10) 
-1.57736

>  <SCORE.SYSTEM.norm>  (10) 
-0.663295

>  <SCORE.heavy>  (10) 
22

>  <SCORE.norm>  (10) 
-0.639888

$$$$
denovo_401
     RDKit          3D

 22 23  0  0  0  0  0  0  0  0999 V2000
    4.4472    9.2144   -4.3161 C   0  0  0  0  0  0  0  0  0  0  0  0
    5.0577    9.4389   -3.0522 O   0  0  0  0  0  0  0  0  0  0  0  0
    6.4640    9.1861   -3.0928 C   0  0  0  0  0  0  0  0  0  0  0  0
    7.1759    9.9406   -1.9487 C   0  0  2  0  0  0  0  0  0  0  0  0
    6.8878    9.2443   -0.6231 C   0  0  0  0  0  0  0  0  0  0  0  0
    5.7257    8.4706   -0.4824 C   0  0  0  0  0  0  0  0  0  0  0  0
    5.4411    7.8267    0.7230 C   0  0  0  0  0  0  0  0  0  0  0  0
    6.3127    7.9483    1.8026 C   0  0  0  0  0  0  0  0  0  0  0  0
    7.4696    8.7141    1.6783 C   0  0  0  0  0  0  0  0  0  0  0  0
    7.7562    9.3593    0.4739 C   0  0  0  0  0  0  0  0  0  0  0  0
    6.8043   11.4446   -1.8994 C   0  0  2  0  0  0  0  0  0  0  0  0
    7.4999   12.3103   -2.9551 C   0  0  0  0  0  0  0  0  0  0  0  0
    7.5663   13.7250   -2.3714 C   0  0  0  0  0  0  0  0  0  0  0  0
    7.0563   13.6298   -0.9309 C   0  0  2  0  0  0  0  0  0  0  0  0
    7.7736   14.5136    0.1041 C   0  0  0  0  0  0  0  0  0  0  0  0
    6.9924   14.9292    1.3976 C   0  0  0  0  0  0  0  0  0  0  0  0
    6.9771   13.7530    2.3951 C   0  0  0  0  0  0  0  0  0  0  0  0
    7.8030   16.0832    2.0408 C   0  0  0  0  0  0  0  0  0  0  0  0
    5.5364   15.4042    1.0936 C   0  0  1  0  0  0  0  0  0  0  0  0
    5.4118   16.4828    0.0170 C   0  0  0  0  0  0  0  0  0  0  0  0
    4.7223   14.3133    0.6600 O   0  0  0  0  0  0  0  0  0  0  0  0
    7.2164   12.1406   -0.5979 C   0  0  0  0  0  0  0  0  0  0  0  0
  1  2  1  0
  2  3  1  0
  4  3  1  6
  4  5  1  0
  5  6  2  0
  6  7  1  0
  7  8  2  0
  8  9  1  0
  9 10  2  0
  4 11  1  0
 11 12  1  6
 12 13  1  0
 13 14  1  0
 14 15  1  1
 15 16  1  0
 16 17  1  0
 16 18  1  0
 16 19  1  0
 19 20  1  6
 19 21  1  0
 14 22  1  0
 10  5  1  0
 22 11  1  0
M  END
>  <CHROM.0>  (11) 
-37.52990249,-67.93641183,70.53272514,69.12348662,-58.12678515,67.48654945
74.83136095,172.62248009

>  <CHROM.1>  (11) 
157.58965946,73.89995867,-24.97323946,-77.12469782,155.12198600,78.33998559
-51.62080292,174.87479035,6.50790299,11.80837771,-0.47535825,2.07871715,1.40710777
2.97388453

>  <Name>  (11) 
denovo_401

>  <RI>  (11) 
-1.15655e+09

>  <Rbt.Current_Directory>  (11) 
/tmp/claude-0/-home-user-Rare-cancers/1af35c7f-7dc4-53ce-91d2-1631a2a10a85/scratchpad/smwork/cross/dock_metad-opened_v2-statematch

>  <Rbt.Executable>  (11) 
rbdock - v25.07-alpha

>  <Rbt.Library>  (11) 
libRbt.so (25.07, Buildalpha)

>  <Rbt.Parameter_File>  (11) 
/tmp/claude-0/-home-user-Rare-cancers/1af35c7f-7dc4-53ce-91d2-1631a2a10a85/scratchpad/rdroot/share/rDock/data/scripts/dock.prm

>  <Rbt.Receptor>  (11) 
rec.prm

>  <SCORE>  (11) 
-13.4038

>  <SCORE.INTER>  (11) 
-3.68799

>  <SCORE.INTER.CONST>  (11) 
1

>  <SCORE.INTER.POLAR>  (11) 
0

>  <SCORE.INTER.REPUL>  (11) 
0

>  <SCORE.INTER.ROT>  (11) 
7

>  <SCORE.INTER.VDW>  (11) 
-16.088

>  <SCORE.INTER.norm>  (11) 
-0.167636

>  <SCORE.INTRA>  (11) 
4.09783

>  <SCORE.INTRA.DIHEDRAL>  (11) 
4.97617

>  <SCORE.INTRA.DIHEDRAL.0>  (11) 
3.78927

>  <SCORE.INTRA.POLAR>  (11) 
0

>  <SCORE.INTRA.POLAR.0>  (11) 
0

>  <SCORE.INTRA.REPUL>  (11) 
0

>  <SCORE.INTRA.REPUL.0>  (11) 
0

>  <SCORE.INTRA.VDW>  (11) 
1.60974

>  <SCORE.INTRA.VDW.0>  (11) 
1.02728

>  <SCORE.INTRA.norm>  (11) 
0.186265

>  <SCORE.RESTR>  (11) 
0

>  <SCORE.RESTR.CAVITY>  (11) 
0

>  <SCORE.RESTR.norm>  (11) 
0

>  <SCORE.SYSTEM>  (11) 
-13.8137

>  <SCORE.SYSTEM.CONST>  (11) 
0

>  <SCORE.SYSTEM.DIHEDRAL>  (11) 
5.12279

>  <SCORE.SYSTEM.POLAR>  (11) 
-4.81439

>  <SCORE.SYSTEM.REPUL>  (11) 
0.0778099

>  <SCORE.SYSTEM.VDW>  (11) 
-0.39518

>  <SCORE.SYSTEM.norm>  (11) 
-0.627893

>  <SCORE.heavy>  (11) 
22

>  <SCORE.norm>  (11) 
-0.609264

$$$$
denovo_401
     RDKit          3D

 22 23  0  0  0  0  0  0  0  0999 V2000
    5.5197   12.8581   -5.1532 C   0  0  0  0  0  0  0  0  0  0  0  0
    6.9042   12.6000   -5.3459 O   0  0  0  0  0  0  0  0  0  0  0  0
    7.2210   11.2243   -5.1213 C   0  0  0  0  0  0  0  0  0  0  0  0
    7.3286   10.9411   -3.6070 C   0  0  2  0  0  0  0  0  0  0  0  0
    6.1937   10.0164   -3.1802 C   0  0  0  0  0  0  0  0  0  0  0  0
    6.4372    9.0065   -2.2370 C   0  0  0  0  0  0  0  0  0  0  0  0
    5.4135    8.1473   -1.8341 C   0  0  0  0  0  0  0  0  0  0  0  0
    4.1348    8.2852   -2.3689 C   0  0  0  0  0  0  0  0  0  0  0  0
    3.8784    9.2822   -3.3072 C   0  0  0  0  0  0  0  0  0  0  0  0
    4.9006   10.1426   -3.7119 C   0  0  0  0  0  0  0  0  0  0  0  0
    7.3649   12.2357   -2.7554 C   0  0  2  0  0  0  0  0  0  0  0  0
    8.7627   12.8302   -2.5545 C   0  0  0  0  0  0  0  0  0  0  0  0
    8.7090   13.6131   -1.2389 C   0  0  0  0  0  0  0  0  0  0  0  0
    7.3380   13.3333   -0.6174 C   0  0  2  0  0  0  0  0  0  0  0  0
    7.3026   13.1874    0.9137 C   0  0  0  0  0  0  0  0  0  0  0  0
    5.9098   13.0298    1.6147 C   0  0  0  0  0  0  0  0  0  0  0  0
    4.9399   14.1082    1.0902 C   0  0  0  0  0  0  0  0  0  0  0  0
    5.3597   11.6479    1.1788 C   0  0  0  0  0  0  0  0  0  0  0  0
    6.0095   13.0979    3.1714 C   0  0  1  0  0  0  0  0  0  0  0  0
    4.7106   12.8058    3.9233 C   0  0  0  0  0  0  0  0  0  0  0  0
    6.9727   12.1647    3.6638 O   0  0  0  0  0  0  0  0  0  0  0  0
    6.8943   12.0384   -1.3105 C   0  0  0  0  0  0  0  0  0  0  0  0
  1  2  1  0
  2  3  1  0
  4  3  1  6
  4  5  1  0
  5  6  2  0
  6  7  1  0
  7  8  2  0
  8  9  1  0
  9 10  2  0
  4 11  1  0
 11 12  1  1
 12 13  1  0
 13 14  1  0
 14 15  1  1
 15 16  1  0
 16 17  1  0
 16 18  1  0
 16 19  1  0
 19 20  1  1
 19 21  1  0
 14 22  1  0
 10  5  1  0
 22 11  1  0
M  END
>  <CHROM.0>  (12) 
165.20293229,-72.05732968,66.10831388,65.67921459,179.84830815,179.17975511
-168.66320570,172.67092593

>  <CHROM.1>  (12) 
-79.45020172,113.10585452,141.17242211,-87.22027318,174.56292828,-48.40033064
-173.88826436,67.63184721,6.29595874,11.72780033,-1.25497889,-1.54252381
0.93559823,1.24358150

>  <Name>  (12) 
denovo_401

>  <RI>  (12) 
-1.15655e+09

>  <Rbt.Current_Directory>  (12) 
/tmp/claude-0/-home-user-Rare-cancers/1af35c7f-7dc4-53ce-91d2-1631a2a10a85/scratchpad/smwork/cross/dock_metad-opened_v2-statematch

>  <Rbt.Executable>  (12) 
rbdock - v25.07-alpha

>  <Rbt.Library>  (12) 
libRbt.so (25.07, Buildalpha)

>  <Rbt.Parameter_File>  (12) 
/tmp/claude-0/-home-user-Rare-cancers/1af35c7f-7dc4-53ce-91d2-1631a2a10a85/scratchpad/rdroot/share/rDock/data/scripts/dock.prm

>  <Rbt.Receptor>  (12) 
rec.prm

>  <SCORE>  (12) 
-12.7523

>  <SCORE.INTER>  (12) 
-5.64475

>  <SCORE.INTER.CONST>  (12) 
1

>  <SCORE.INTER.POLAR>  (12) 
0

>  <SCORE.INTER.REPUL>  (12) 
0

>  <SCORE.INTER.ROT>  (12) 
7

>  <SCORE.INTER.VDW>  (12) 
-18.0447

>  <SCORE.INTER.norm>  (12) 
-0.256579

>  <SCORE.INTRA>  (12) 
9.20723

>  <SCORE.INTRA.DIHEDRAL>  (12) 
7.24906

>  <SCORE.INTRA.DIHEDRAL.0>  (12) 
3.78927

>  <SCORE.INTRA.POLAR>  (12) 
0

>  <SCORE.INTRA.POLAR.0>  (12) 
0

>  <SCORE.INTRA.REPUL>  (12) 
0

>  <SCORE.INTRA.REPUL.0>  (12) 
0

>  <SCORE.INTRA.VDW>  (12) 
5.5827

>  <SCORE.INTRA.VDW.0>  (12) 
1.02728

>  <SCORE.INTRA.norm>  (12) 
0.41851

>  <SCORE.RESTR>  (12) 
0

>  <SCORE.RESTR.CAVITY>  (12) 
0

>  <SCORE.RESTR.norm>  (12) 
0

>  <SCORE.SYSTEM>  (12) 
-16.3148

>  <SCORE.SYSTEM.CONST>  (12) 
0

>  <SCORE.SYSTEM.DIHEDRAL>  (12) 
3.04071

>  <SCORE.SYSTEM.POLAR>  (12) 
-5.02528

>  <SCORE.SYSTEM.REPUL>  (12) 
0.0874833

>  <SCORE.SYSTEM.VDW>  (12) 
-1.18657

>  <SCORE.SYSTEM.norm>  (12) 
-0.74158

>  <SCORE.heavy>  (12) 
22

>  <SCORE.norm>  (12) 
-0.579649

$$$$
denovo_401
     RDKit          3D

 22 23  0  0  0  0  0  0  0  0999 V2000
    4.7026   14.2186   -5.5431 C   0  0  0  0  0  0  0  0  0  0  0  0
    5.0796   13.1044   -4.7451 O   0  0  0  0  0  0  0  0  0  0  0  0
    6.2047   12.4165   -5.2968 C   0  0  0  0  0  0  0  0  0  0  0  0
    7.0018   11.7119   -4.1773 C   0  0  2  0  0  0  0  0  0  0  0  0
    6.2053   10.5197   -3.6584 C   0  0  0  0  0  0  0  0  0  0  0  0
    6.8471    9.5360   -2.8908 C   0  0  0  0  0  0  0  0  0  0  0  0
    6.1377    8.4349   -2.4079 C   0  0  0  0  0  0  0  0  0  0  0  0
    4.7795    8.3024   -2.6864 C   0  0  0  0  0  0  0  0  0  0  0  0
    4.1291    9.2703   -3.4482 C   0  0  0  0  0  0  0  0  0  0  0  0
    4.8365   10.3721   -3.9326 C   0  0  0  0  0  0  0  0  0  0  0  0
    7.4061   12.6744   -3.0316 C   0  0  2  0  0  0  0  0  0  0  0  0
    8.9159   12.7941   -2.7995 C   0  0  0  0  0  0  0  0  0  0  0  0
    9.0926   13.1840   -1.3287 C   0  0  0  0  0  0  0  0  0  0  0  0
    7.7020   13.1301   -0.6903 C   0  0  2  0  0  0  0  0  0  0  0  0
    7.6361   12.5982    0.7517 C   0  0  0  0  0  0  0  0  0  0  0  0
    6.3196   12.8275    1.5706 C   0  0  0  0  0  0  0  0  0  0  0  0
    6.5622   12.4752    3.0524 C   0  0  0  0  0  0  0  0  0  0  0  0
    6.0184   14.3458    1.4896 C   0  0  0  0  0  0  0  0  0  0  0  0
    5.1124   12.0129    1.0078 C   0  0  1  0  0  0  0  0  0  0  0  0
    5.3760   10.5234    0.7840 C   0  0  0  0  0  0  0  0  0  0  0  0
    3.9886   12.0904    1.8865 O   0  0  0  0  0  0  0  0  0  0  0  0
    6.9077   12.2352   -1.6508 C   0  0  0  0  0  0  0  0  0  0  0  0
  1  2  1  0
  2  3  1  0
  4  3  1  6
  4  5  1  0
  5  6  2  0
  6  7  1  0
  7  8  2  0
  8  9  1  0
  9 10  2  0
  4 11  1  0
 11 12  1  1
 12 13  1  0
 13 14  1  0
 14 15  1  1
 15 16  1  0
 16 17  1  0
 16 18  1  0
 16 19  1  0
 19 20  1  1
 19 21  1  0
 14 22  1  0
 10  5  1  0
 22 11  1  0
M  END
>  <CHROM.0>  (13) 
72.34708499,-177.18680064,66.02565681,-54.57224084,-59.08645058,-177.90237429
-169.91615496,70.44980575

>  <CHROM.1>  (13) 
152.54513872,71.42230518,164.00047380,-120.17496074,165.93285973,-168.84810956
50.70488944,64.39057782,6.19418557,11.82820847,-1.66426909,-1.69371887,1.03708303
1.47991998

>  <Name>  (13) 
denovo_401

>  <RI>  (13) 
-1.15655e+09

>  <Rbt.Current_Directory>  (13) 
/tmp/claude-0/-home-user-Rare-cancers/1af35c7f-7dc4-53ce-91d2-1631a2a10a85/scratchpad/smwork/cross/dock_metad-opened_v2-statematch

>  <Rbt.Executable>  (13) 
rbdock - v25.07-alpha

>  <Rbt.Library>  (13) 
libRbt.so (25.07, Buildalpha)

>  <Rbt.Parameter_File>  (13) 
/tmp/claude-0/-home-user-Rare-cancers/1af35c7f-7dc4-53ce-91d2-1631a2a10a85/scratchpad/rdroot/share/rDock/data/scripts/dock.prm

>  <Rbt.Receptor>  (13) 
rec.prm

>  <SCORE>  (13) 
-12.1541

>  <SCORE.INTER>  (13) 
-8.08666

>  <SCORE.INTER.CONST>  (13) 
1

>  <SCORE.INTER.POLAR>  (13) 
-0.600017

>  <SCORE.INTER.REPUL>  (13) 
0

>  <SCORE.INTER.ROT>  (13) 
7

>  <SCORE.INTER.VDW>  (13) 
-18.4466

>  <SCORE.INTER.norm>  (13) 
-0.367575

>  <SCORE.INTRA>  (13) 
6.63795

>  <SCORE.INTRA.DIHEDRAL>  (13) 
8.44528

>  <SCORE.INTRA.DIHEDRAL.0>  (13) 
3.78927

>  <SCORE.INTRA.POLAR>  (13) 
0

>  <SCORE.INTRA.POLAR.0>  (13) 
0

>  <SCORE.INTRA.REPUL>  (13) 
0

>  <SCORE.INTRA.REPUL.0>  (13) 
0

>  <SCORE.INTRA.VDW>  (13) 
2.41531

>  <SCORE.INTRA.VDW.0>  (13) 
1.02728

>  <SCORE.INTRA.norm>  (13) 
0.301725

>  <SCORE.RESTR>  (13) 
0

>  <SCORE.RESTR.CAVITY>  (13) 
0

>  <SCORE.RESTR.norm>  (13) 
0

>  <SCORE.SYSTEM>  (13) 
-10.7053

>  <SCORE.SYSTEM.CONST>  (13) 
0

>  <SCORE.SYSTEM.DIHEDRAL>  (13) 
2.23246

>  <SCORE.SYSTEM.POLAR>  (13) 
-3.53873

>  <SCORE.SYSTEM.REPUL>  (13) 
0.260799

>  <SCORE.SYSTEM.VDW>  (13) 
-1.09389

>  <SCORE.SYSTEM.norm>  (13) 
-0.486607

>  <SCORE.heavy>  (13) 
22

>  <SCORE.norm>  (13) 
-0.552457

$$$$
denovo_401
     RDKit          3D

 22 23  0  0  0  0  0  0  0  0999 V2000
    4.6852    8.9761   -2.8722 C   0  0  0  0  0  0  0  0  0  0  0  0
    5.7090    9.0747   -1.8911 O   0  0  0  0  0  0  0  0  0  0  0  0
    5.5010   10.1896   -1.0211 C   0  0  0  0  0  0  0  0  0  0  0  0
    6.6459   10.2829    0.0111 C   0  0  2  0  0  0  0  0  0  0  0  0
    6.6099    9.0613    0.9230 C   0  0  0  0  0  0  0  0  0  0  0  0
    7.4476    9.0082    2.0474 C   0  0  0  0  0  0  0  0  0  0  0  0
    7.4328    7.8984    2.8941 C   0  0  0  0  0  0  0  0  0  0  0  0
    6.5824    6.8280    2.6277 C   0  0  0  0  0  0  0  0  0  0  0  0
    5.7460    6.8659    1.5145 C   0  0  0  0  0  0  0  0  0  0  0  0
    5.7593    7.9745    0.6661 C   0  0  0  0  0  0  0  0  0  0  0  0
    6.6176   11.6044    0.8208 C   0  0  2  0  0  0  0  0  0  0  0  0
    5.6970   11.5846    2.0455 C   0  0  0  0  0  0  0  0  0  0  0  0
    5.2815   13.0384    2.2912 C   0  0  0  0  0  0  0  0  0  0  0  0
    5.8332   13.8564    1.1204 C   0  0  2  0  0  0  0  0  0  0  0  0
    4.9370   14.9957    0.6051 C   0  0  0  0  0  0  0  0  0  0  0  0
    5.5988   16.1429   -0.2327 C   0  0  0  0  0  0  0  0  0  0  0  0
    6.5185   16.9845    0.6755 C   0  0  0  0  0  0  0  0  0  0  0  0
    6.4906   15.4463   -1.2919 C   0  0  0  0  0  0  0  0  0  0  0  0
    4.5466   17.0559   -0.9378 C   0  0  1  0  0  0  0  0  0  0  0  0
    5.1086   18.0024   -1.9990 C   0  0  0  0  0  0  0  0  0  0  0  0
    3.5466   16.2731   -1.5922 O   0  0  0  0  0  0  0  0  0  0  0  0
    6.0710   12.7999    0.0334 C   0  0  0  0  0  0  0  0  0  0  0  0
  1  2  1  0
  2  3  1  0
  4  3  1  6
  4  5  1  0
  5  6  2  0
  6  7  1  0
  7  8  2  0
  8  9  1  0
  9 10  2  0
  4 11  1  0
 11 12  1  1
 12 13  1  0
 13 14  1  0
 14 15  1  6
 15 16  1  0
 16 17  1  0
 16 18  1  0
 16 19  1  0
 19 20  1  6
 19 21  1  0
 14 22  1  0
 10  5  1  0
 22 11  1  0
M  END
>  <CHROM.0>  (14) 
77.42886226,-75.09725498,-63.02002669,65.44775579,67.85021935,68.16250563
-168.17457928,168.58227409

>  <CHROM.1>  (14) 
-178.80610315,-65.05587063,-171.84336064,84.95991417,160.07176701,-68.74366988
-167.58776319,171.97974993,5.79037745,12.10712407,0.20933160,1.17129774,1.22167231
-2.97486829

>  <Name>  (14) 
denovo_401

>  <RI>  (14) 
-1.15655e+09

>  <Rbt.Current_Directory>  (14) 
/tmp/claude-0/-home-user-Rare-cancers/1af35c7f-7dc4-53ce-91d2-1631a2a10a85/scratchpad/smwork/cross/dock_metad-opened_v2-statematch

>  <Rbt.Executable>  (14) 
rbdock - v25.07-alpha

>  <Rbt.Library>  (14) 
libRbt.so (25.07, Buildalpha)

>  <Rbt.Parameter_File>  (14) 
/tmp/claude-0/-home-user-Rare-cancers/1af35c7f-7dc4-53ce-91d2-1631a2a10a85/scratchpad/rdroot/share/rDock/data/scripts/dock.prm

>  <Rbt.Receptor>  (14) 
rec.prm

>  <SCORE>  (14) 
-11.9855

>  <SCORE.INTER>  (14) 
-5.53013

>  <SCORE.INTER.CONST>  (14) 
1

>  <SCORE.INTER.POLAR>  (14) 
0

>  <SCORE.INTER.REPUL>  (14) 
0.0561195

>  <SCORE.INTER.ROT>  (14) 
7

>  <SCORE.INTER.VDW>  (14) 
-18.2107

>  <SCORE.INTER.norm>  (14) 
-0.251369

>  <SCORE.INTRA>  (14) 
9.06615

>  <SCORE.INTRA.DIHEDRAL>  (14) 
2.48785

>  <SCORE.INTRA.DIHEDRAL.0>  (14) 
3.78927

>  <SCORE.INTRA.POLAR>  (14) 
0

>  <SCORE.INTRA.POLAR.0>  (14) 
0

>  <SCORE.INTRA.REPUL>  (14) 
0

>  <SCORE.INTRA.REPUL.0>  (14) 
0

>  <SCORE.INTRA.VDW>  (14) 
7.82222

>  <SCORE.INTRA.VDW.0>  (14) 
1.02728

>  <SCORE.INTRA.norm>  (14) 
0.412098

>  <SCORE.RESTR>  (14) 
1.15331

>  <SCORE.RESTR.CAVITY>  (14) 
1.15331

>  <SCORE.RESTR.norm>  (14) 
0.0524234

>  <SCORE.SYSTEM>  (14) 
-16.6748

>  <SCORE.SYSTEM.CONST>  (14) 
0

>  <SCORE.SYSTEM.DIHEDRAL>  (14) 
4.65856

>  <SCORE.SYSTEM.POLAR>  (14) 
-5.11981

>  <SCORE.SYSTEM.REPUL>  (14) 
0.333201

>  <SCORE.SYSTEM.VDW>  (14) 
-3.26277

>  <SCORE.SYSTEM.norm>  (14) 
-0.757948

>  <SCORE.heavy>  (14) 
22

>  <SCORE.norm>  (14) 
-0.544796

$$$$
denovo_401
     RDKit          3D

 22 23  0  0  0  0  0  0  0  0999 V2000
    9.0025   14.3776   -1.5620 C   0  0  0  0  0  0  0  0  0  0  0  0
    7.7844   13.7827   -1.1345 O   0  0  0  0  0  0  0  0  0  0  0  0
    7.8522   12.3553   -1.1721 C   0  0  0  0  0  0  0  0  0  0  0  0
    6.5266   11.7439   -0.6682 C   0  0  2  0  0  0  0  0  0  0  0  0
    6.3047   12.1392    0.7877 C   0  0  0  0  0  0  0  0  0  0  0  0
    5.0315   12.5508    1.2101 C   0  0  0  0  0  0  0  0  0  0  0  0
    4.8068   12.9195    2.5375 C   0  0  0  0  0  0  0  0  0  0  0  0
    5.8507   12.8827    3.4589 C   0  0  0  0  0  0  0  0  0  0  0  0
    7.1203   12.4776    3.0540 C   0  0  0  0  0  0  0  0  0  0  0  0
    7.3476   12.1086    1.7269 C   0  0  0  0  0  0  0  0  0  0  0  0
    6.4627   10.2073   -0.8617 C   0  0  2  0  0  0  0  0  0  0  0  0
    6.0164    9.7563   -2.2564 C   0  0  0  0  0  0  0  0  0  0  0  0
    5.3847    8.3724   -2.0761 C   0  0  0  0  0  0  0  0  0  0  0  0
    5.3285    8.1086   -0.5690 C   0  0  2  0  0  0  0  0  0  0  0  0
    4.0806    7.3709   -0.0540 C   0  0  0  0  0  0  0  0  0  0  0  0
    4.2829    6.1012    0.8421 C   0  0  0  0  0  0  0  0  0  0  0  0
    4.7920    4.9308   -0.0237 C   0  0  0  0  0  0  0  0  0  0  0  0
    5.3999    6.4598    1.8551 C   0  0  0  0  0  0  0  0  0  0  0  0
    2.9834    5.6900    1.6037 C   0  0  1  0  0  0  0  0  0  0  0  0
    2.7447    6.4151    2.9285 C   0  0  0  0  0  0  0  0  0  0  0  0
    1.8240    5.9300    0.8042 O   0  0  0  0  0  0  0  0  0  0  0  0
    5.4355    9.5133    0.0390 C   0  0  0  0  0  0  0  0  0  0  0  0
  1  2  1  0
  2  3  1  0
  4  3  1  1
  4  5  1  0
  5  6  2  0
  6  7  1  0
  7  8  2  0
  8  9  1  0
  9 10  2  0
  4 11  1  0
 11 12  1  6
 12 13  1  0
 13 14  1  0
 14 15  1  6
 15 16  1  0
 16 17  1  0
 16 18  1  0
 16 19  1  0
 19 20  1  1
 19 21  1  0
 14 22  1  0
 10  5  1  0
 22 11  1  0
M  END
>  <CHROM.0>  (15) 
76.97552805,-74.65688410,-44.35851161,-54.18684578,-179.30062745,67.93924427
-168.80131351,71.62212548

>  <CHROM.1>  (15) 
178.57151136,-62.64507606,136.66425704,-83.69151042,128.16368753,-72.31714811
-84.94310589,75.66672510,5.53747453,9.76401443,0.44238615,-0.53897442,-0.99967845
-2.30397496

>  <Name>  (15) 
denovo_401

>  <RI>  (15) 
-1.15655e+09

>  <Rbt.Current_Directory>  (15) 
/tmp/claude-0/-home-user-Rare-cancers/1af35c7f-7dc4-53ce-91d2-1631a2a10a85/scratchpad/smwork/cross/dock_metad-opened_v2-statematch

>  <Rbt.Executable>  (15) 
rbdock - v25.07-alpha

>  <Rbt.Library>  (15) 
libRbt.so (25.07, Buildalpha)

>  <Rbt.Parameter_File>  (15) 
/tmp/claude-0/-home-user-Rare-cancers/1af35c7f-7dc4-53ce-91d2-1631a2a10a85/scratchpad/rdroot/share/rDock/data/scripts/dock.prm

>  <Rbt.Receptor>  (15) 
rec.prm

>  <SCORE>  (15) 
-11.0646

>  <SCORE.INTER>  (15) 
-6.19766

>  <SCORE.INTER.CONST>  (15) 
1

>  <SCORE.INTER.POLAR>  (15) 
-0.673495

>  <SCORE.INTER.REPUL>  (15) 
0

>  <SCORE.INTER.ROT>  (15) 
7

>  <SCORE.INTER.VDW>  (15) 
-16.3078

>  <SCORE.INTER.norm>  (15) 
-0.281712

>  <SCORE.INTRA>  (15) 
8.20333

>  <SCORE.INTRA.DIHEDRAL>  (15) 
9.92001

>  <SCORE.INTRA.DIHEDRAL.0>  (15) 
3.78927

>  <SCORE.INTRA.POLAR>  (15) 
0

>  <SCORE.INTRA.POLAR.0>  (15) 
0

>  <SCORE.INTRA.REPUL>  (15) 
0

>  <SCORE.INTRA.REPUL.0>  (15) 
0

>  <SCORE.INTRA.VDW>  (15) 
3.24332

>  <SCORE.INTRA.VDW.0>  (15) 
1.02728

>  <SCORE.INTRA.norm>  (15) 
0.372879

>  <SCORE.RESTR>  (15) 
0

>  <SCORE.RESTR.CAVITY>  (15) 
0

>  <SCORE.RESTR.norm>  (15) 
0

>  <SCORE.SYSTEM>  (15) 
-13.0703

>  <SCORE.SYSTEM.CONST>  (15) 
0

>  <SCORE.SYSTEM.DIHEDRAL>  (15) 
5.29524

>  <SCORE.SYSTEM.POLAR>  (15) 
-4.75239

>  <SCORE.SYSTEM.REPUL>  (15) 
0.377352

>  <SCORE.SYSTEM.VDW>  (15) 
-1.44655

>  <SCORE.SYSTEM.norm>  (15) 
-0.594105

>  <SCORE.heavy>  (15) 
22

>  <SCORE.norm>  (15) 
-0.502938

$$$$
denovo_401
     RDKit          3D

 22 23  0  0  0  0  0  0  0  0999 V2000
    6.1689    6.5110    1.6821 C   0  0  0  0  0  0  0  0  0  0  0  0
    6.8617    7.4692    2.4710 O   0  0  0  0  0  0  0  0  0  0  0  0
    7.4617    8.4841    1.6627 C   0  0  0  0  0  0  0  0  0  0  0  0
    6.3825    9.4546    1.1350 C   0  0  2  0  0  0  0  0  0  0  0  0
    5.9691    9.0394   -0.2728 C   0  0  0  0  0  0  0  0  0  0  0  0
    6.8170    9.3156   -1.3562 C   0  0  0  0  0  0  0  0  0  0  0  0
    6.4571    8.9467   -2.6535 C   0  0  0  0  0  0  0  0  0  0  0  0
    5.2460    8.2989   -2.8849 C   0  0  0  0  0  0  0  0  0  0  0  0
    4.3934    8.0193   -1.8195 C   0  0  0  0  0  0  0  0  0  0  0  0
    4.7510    8.3874   -0.5212 C   0  0  0  0  0  0  0  0  0  0  0  0
    6.8316   10.9372    1.1874 C   0  0  2  0  0  0  0  0  0  0  0  0
    6.8886   11.5389    2.5954 C   0  0  0  0  0  0  0  0  0  0  0  0
    6.6781   13.0466    2.4247 C   0  0  0  0  0  0  0  0  0  0  0  0
    6.3450   13.2788    0.9484 C   0  0  2  0  0  0  0  0  0  0  0  0
    5.2913   14.3595    0.6511 C   0  0  0  0  0  0  0  0  0  0  0  0
    5.7297   15.6217   -0.1680 C   0  0  0  0  0  0  0  0  0  0  0  0
    6.3631   16.6608    0.7794 C   0  0  0  0  0  0  0  0  0  0  0  0
    6.8316   15.1414   -1.1465 C   0  0  0  0  0  0  0  0  0  0  0  0
    4.5490   16.2603   -0.9654 C   0  0  1  0  0  0  0  0  0  0  0  0
    3.4506   16.8947   -0.1115 C   0  0  0  0  0  0  0  0  0  0  0  0
    5.0184   17.2892   -1.8384 O   0  0  0  0  0  0  0  0  0  0  0  0
    5.8763   11.8979    0.4714 C   0  0  0  0  0  0  0  0  0  0  0  0
  1  2  1  0
  2  3  1  0
  4  3  1  6
  4  5  1  0
  5  6  2  0
  6  7  1  0
  7  8  2  0
  8  9  1  0
  9 10  2  0
  4 11  1  0
 11 12  1  1
 12 13  1  0
 13 14  1  0
 14 15  1  1
 15 16  1  0
 16 17  1  0
 16 18  1  0
 16 19  1  0
 19 20  1  1
 19 21  1  0
 14 22  1  0
 10  5  1  0
 22 11  1  0
M  END
>  <CHROM.0>  (16) 
75.43631682,64.89580672,70.44949571,68.56745656,-57.69585150,177.49685212
-169.49549406,172.01538689

>  <CHROM.1>  (16) 
74.40272036,-96.45601349,-75.85126664,-72.29077299,116.74580696,-84.00027446
67.20200318,-57.29135061,5.92748530,11.76484450,0.13423899,-1.26419774,-1.20796312
0.21316522

>  <Name>  (16) 
denovo_401

>  <RI>  (16) 
-1.15655e+09

>  <Rbt.Current_Directory>  (16) 
/tmp/claude-0/-home-user-Rare-cancers/1af35c7f-7dc4-53ce-91d2-1631a2a10a85/scratchpad/smwork/cross/dock_metad-opened_v2-statematch

>  <Rbt.Executable>  (16) 
rbdock - v25.07-alpha

>  <Rbt.Library>  (16) 
libRbt.so (25.07, Buildalpha)

>  <Rbt.Parameter_File>  (16) 
/tmp/claude-0/-home-user-Rare-cancers/1af35c7f-7dc4-53ce-91d2-1631a2a10a85/scratchpad/rdroot/share/rDock/data/scripts/dock.prm

>  <Rbt.Receptor>  (16) 
rec.prm

>  <SCORE>  (16) 
-10.5138

>  <SCORE.INTER>  (16) 
-9.4391

>  <SCORE.INTER.CONST>  (16) 
1

>  <SCORE.INTER.POLAR>  (16) 
0

>  <SCORE.INTER.REPUL>  (16) 
0.0516981

>  <SCORE.INTER.ROT>  (16) 
7

>  <SCORE.INTER.VDW>  (16) 
-22.0976

>  <SCORE.INTER.norm>  (16) 
-0.42905

>  <SCORE.INTRA>  (16) 
9.25601

>  <SCORE.INTRA.DIHEDRAL>  (16) 
11.4745

>  <SCORE.INTRA.DIHEDRAL.0>  (16) 
3.78927

>  <SCORE.INTRA.POLAR>  (16) 
0

>  <SCORE.INTRA.POLAR.0>  (16) 
0

>  <SCORE.INTRA.REPUL>  (16) 
0

>  <SCORE.INTRA.REPUL.0>  (16) 
0

>  <SCORE.INTRA.VDW>  (16) 
3.51874

>  <SCORE.INTRA.VDW.0>  (16) 
1.02728

>  <SCORE.INTRA.norm>  (16) 
0.420728

>  <SCORE.RESTR>  (16) 
0.444332

>  <SCORE.RESTR.CAVITY>  (16) 
0.444332

>  <SCORE.RESTR.norm>  (16) 
0.0201969

>  <SCORE.SYSTEM>  (16) 
-10.775

>  <SCORE.SYSTEM.CONST>  (16) 
0

>  <SCORE.SYSTEM.DIHEDRAL>  (16) 
3.10629

>  <SCORE.SYSTEM.POLAR>  (16) 
-3.8344

>  <SCORE.SYSTEM.REPUL>  (16) 
0.49822

>  <SCORE.SYSTEM.VDW>  (16) 
-1.78228

>  <SCORE.SYSTEM.norm>  (16) 
-0.489773

>  <SCORE.heavy>  (16) 
22

>  <SCORE.norm>  (16) 
-0.477899

$$$$
denovo_401
     RDKit          3D

 22 23  0  0  0  0  0  0  0  0999 V2000
    2.1167   20.1506   -6.0879 C   0  0  0  0  0  0  0  0  0  0  0  0
    2.5339   19.5047   -4.8924 O   0  0  0  0  0  0  0  0  0  0  0  0
    3.9503   19.5838   -4.7163 C   0  0  0  0  0  0  0  0  0  0  0  0
    4.5324   18.1821   -4.4312 C   0  0  2  0  0  0  0  0  0  0  0  0
    4.2613   17.2668   -5.6202 C   0  0  0  0  0  0  0  0  0  0  0  0
    4.3471   15.8754   -5.4603 C   0  0  0  0  0  0  0  0  0  0  0  0
    4.1055   15.0192   -6.5360 C   0  0  0  0  0  0  0  0  0  0  0  0
    3.7765   15.5418   -7.7845 C   0  0  0  0  0  0  0  0  0  0  0  0
    3.6889   16.9210   -7.9587 C   0  0  0  0  0  0  0  0  0  0  0  0
    3.9304   17.7793   -6.8845 C   0  0  0  0  0  0  0  0  0  0  0  0
    4.0074   17.5724   -3.1063 C   0  0  2  0  0  0  0  0  0  0  0  0
    3.3362   18.5754   -2.1623 C   0  0  0  0  0  0  0  0  0  0  0  0
    3.5009   18.0081   -0.7490 C   0  0  0  0  0  0  0  0  0  0  0  0
    4.3974   16.7733   -0.8734 C   0  0  2  0  0  0  0  0  0  0  0  0
    5.4081   16.5494    0.2647 C   0  0  0  0  0  0  0  0  0  0  0  0
    5.9708   15.1037    0.4873 C   0  0  0  0  0  0  0  0  0  0  0  0
    6.8339   14.6909   -0.7224 C   0  0  0  0  0  0  0  0  0  0  0  0
    6.9008   15.1869    1.7244 C   0  0  0  0  0  0  0  0  0  0  0  0
    4.8438   14.0521    0.7362 C   0  0  1  0  0  0  0  0  0  0  0  0
    5.3259   12.6671    1.1693 C   0  0  0  0  0  0  0  0  0  0  0  0
    3.9448   14.4966    1.7537 O   0  0  0  0  0  0  0  0  0  0  0  0
    5.1090   16.9880   -2.2157 C   0  0  0  0  0  0  0  0  0  0  0  0
  1  2  1  0
  2  3  1  0
  4  3  1  6
  4  5  1  0
  5  6  2  0
  6  7  1  0
  7  8  2  0
  8  9  1  0
  9 10  2  0
  4 11  1  0
 11 12  1  1
 12 13  1  0
 13 14  1  0
 14 15  1  1
 15 16  1  0
 16 17  1  0
 16 18  1  0
 16 19  1  0
 19 20  1  1
 19 21  1  0
 14 22  1  0
 10  5  1  0
 22 11  1  0
M  END
>  <CHROM.0>  (17) 
70.83919922,-71.88718836,69.66253845,65.22129112,67.82109967,68.28242904
-168.22579177,71.79957531

>  <CHROM.1>  (17) 
-129.15671669,61.57543296,-161.99761731,-15.55010319,158.16896991,66.26892089
-171.13585416,173.37139919,4.39090956,16.65431826,-2.80477546,2.29564203
1.19878416,-1.84430342

>  <Name>  (17) 
denovo_401

>  <RI>  (17) 
-1.15655e+09

>  <Rbt.Current_Directory>  (17) 
/tmp/claude-0/-home-user-Rare-cancers/1af35c7f-7dc4-53ce-91d2-1631a2a10a85/scratchpad/smwork/cross/dock_metad-opened_v2-statematch

>  <Rbt.Executable>  (17) 
rbdock - v25.07-alpha

>  <Rbt.Library>  (17) 
libRbt.so (25.07, Buildalpha)

>  <Rbt.Parameter_File>  (17) 
/tmp/claude-0/-home-user-Rare-cancers/1af35c7f-7dc4-53ce-91d2-1631a2a10a85/scratchpad/rdroot/share/rDock/data/scripts/dock.prm

>  <Rbt.Receptor>  (17) 
rec.prm

>  <SCORE>  (17) 
-9.8774

>  <SCORE.INTER>  (17) 
1.1338

>  <SCORE.INTER.CONST>  (17) 
1

>  <SCORE.INTER.POLAR>  (17) 
-0.335959

>  <SCORE.INTER.REPUL>  (17) 
0

>  <SCORE.INTER.ROT>  (17) 
7

>  <SCORE.INTER.VDW>  (17) 
-10.1239

>  <SCORE.INTER.norm>  (17) 
0.0515364

>  <SCORE.INTRA>  (17) 
11.0565

>  <SCORE.INTRA.DIHEDRAL>  (17) 
11.4119

>  <SCORE.INTRA.DIHEDRAL.0>  (17) 
3.78927

>  <SCORE.INTRA.POLAR>  (17) 
0

>  <SCORE.INTRA.POLAR.0>  (17) 
0

>  <SCORE.INTRA.REPUL>  (17) 
0

>  <SCORE.INTRA.REPUL.0>  (17) 
0

>  <SCORE.INTRA.VDW>  (17) 
5.35057

>  <SCORE.INTRA.VDW.0>  (17) 
1.02728

>  <SCORE.INTRA.norm>  (17) 
0.502568

>  <SCORE.RESTR>  (17) 
0.520497

>  <SCORE.RESTR.CAVITY>  (17) 
0.520497

>  <SCORE.RESTR.norm>  (17) 
0.023659

>  <SCORE.SYSTEM>  (17) 
-22.5882

>  <SCORE.SYSTEM.CONST>  (17) 
0

>  <SCORE.SYSTEM.DIHEDRAL>  (17) 
3.88567

>  <SCORE.SYSTEM.POLAR>  (17) 
-6.60237

>  <SCORE.SYSTEM.VDW>  (17) 
-2.08299

>  <SCORE.SYSTEM.norm>  (17) 
-1.02674

>  <SCORE.heavy>  (17) 
22

>  <SCORE.norm>  (17) 
-0.448974

$$$$
denovo_401
     RDKit          3D

 22 23  0  0  0  0  0  0  0  0999 V2000
    3.9579   12.8913    3.9562 C   0  0  0  0  0  0  0  0  0  0  0  0
    5.2354   12.2877    3.8005 O   0  0  0  0  0  0  0  0  0  0  0  0
    6.0723   13.0426    2.9212 C   0  0  0  0  0  0  0  0  0  0  0  0
    5.5590   12.9320    1.4689 C   0  0  2  0  0  0  0  0  0  0  0  0
    6.1055   11.6591    0.8314 C   0  0  0  0  0  0  0  0  0  0  0  0
    5.3816   10.4619    0.9385 C   0  0  0  0  0  0  0  0  0  0  0  0
    5.8647    9.2845    0.3648 C   0  0  0  0  0  0  0  0  0  0  0  0
    7.0766    9.2881   -0.3216 C   0  0  0  0  0  0  0  0  0  0  0  0
    7.8070   10.4687   -0.4350 C   0  0  0  0  0  0  0  0  0  0  0  0
    7.3261   11.6474    0.1382 C   0  0  0  0  0  0  0  0  0  0  0  0
    5.8876   14.1860    0.6191 C   0  0  2  0  0  0  0  0  0  0  0  0
    6.9449   15.1125    1.2285 C   0  0  0  0  0  0  0  0  0  0  0  0
    6.6588   16.5111    0.6730 C   0  0  0  0  0  0  0  0  0  0  0  0
    5.3529   16.4097   -0.1197 C   0  0  2  0  0  0  0  0  0  0  0  0
    4.4016   17.6146   -0.0199 C   0  0  0  0  0  0  0  0  0  0  0  0
    3.2320   17.7280   -1.0569 C   0  0  0  0  0  0  0  0  0  0  0  0
    2.3428   16.4705   -0.9757 C   0  0  0  0  0  0  0  0  0  0  0  0
    2.3758   18.9412   -0.6127 C   0  0  0  0  0  0  0  0  0  0  0  0
    3.7423   17.9407   -2.5171 C   0  0  1  0  0  0  0  0  0  0  0  0
    4.6478   16.8351   -3.0610 C   0  0  0  0  0  0  0  0  0  0  0  0
    2.6492   18.0452   -3.4310 O   0  0  0  0  0  0  0  0  0  0  0  0
    4.7003   15.1375    0.4371 C   0  0  0  0  0  0  0  0  0  0  0  0
  1  2  1  0
  2  3  1  0
  4  3  1  1
  4  5  1  0
  5  6  2  0
  6  7  1  0
  7  8  2  0
  8  9  1  0
  9 10  2  0
  4 11  1  0
 11 12  1  1
 12 13  1  0
 13 14  1  0
 14 15  1  1
 15 16  1  0
 16 17  1  0
 16 18  1  0
 16 19  1  0
 19 20  1  6
 19 21  1  0
 14 22  1  0
 10  5  1  0
 22 11  1  0
M  END
>  <CHROM.0>  (18) 
163.16137047,-73.56875629,-43.06359867,65.98821208,71.24784568,66.53388371
-167.99804265,169.04966072

>  <CHROM.1>  (18) 
-70.36095074,-84.20182554,89.68138112,15.25851173,165.55631425,58.04430255
59.49617125,171.78096649,5.08521784,14.41239756,0.20928369,0.56367183,-1.13380688
1.76978698

>  <Name>  (18) 
denovo_401

>  <RI>  (18) 
-1.15655e+09

>  <Rbt.Current_Directory>  (18) 
/tmp/claude-0/-home-user-Rare-cancers/1af35c7f-7dc4-53ce-91d2-1631a2a10a85/scratchpad/smwork/cross/dock_metad-opened_v2-statematch

>  <Rbt.Executable>  (18) 
rbdock - v25.07-alpha

>  <Rbt.Library>  (18) 
libRbt.so (25.07, Buildalpha)

>  <Rbt.Parameter_File>  (18) 
/tmp/claude-0/-home-user-Rare-cancers/1af35c7f-7dc4-53ce-91d2-1631a2a10a85/scratchpad/rdroot/share/rDock/data/scripts/dock.prm

>  <Rbt.Receptor>  (18) 
rec.prm

>  <SCORE>  (18) 
-9.8683

>  <SCORE.INTER>  (18) 
-1.3812

>  <SCORE.INTER.CONST>  (18) 
1

>  <SCORE.INTER.POLAR>  (18) 
0

>  <SCORE.INTER.REPUL>  (18) 
0

>  <SCORE.INTER.ROT>  (18) 
7

>  <SCORE.INTER.VDW>  (18) 
-13.7812

>  <SCORE.INTER.norm>  (18) 
-0.0627818

>  <SCORE.INTRA>  (18) 
7.51244

>  <SCORE.INTRA.DIHEDRAL>  (18) 
5.76939

>  <SCORE.INTRA.DIHEDRAL.0>  (18) 
3.78927

>  <SCORE.INTRA.POLAR>  (18) 
0

>  <SCORE.INTRA.POLAR.0>  (18) 
0

>  <SCORE.INTRA.REPUL>  (18) 
0

>  <SCORE.INTRA.REPUL.0>  (18) 
0

>  <SCORE.INTRA.VDW>  (18) 
4.62774

>  <SCORE.INTRA.VDW.0>  (18) 
1.02728

>  <SCORE.INTRA.norm>  (18) 
0.341474

>  <SCORE.RESTR>  (18) 
0.538037

>  <SCORE.RESTR.CAVITY>  (18) 
0.538037

>  <SCORE.RESTR.norm>  (18) 
0.0244562

>  <SCORE.SYSTEM>  (18) 
-16.5376

>  <SCORE.SYSTEM.CONST>  (18) 
0

>  <SCORE.SYSTEM.DIHEDRAL>  (18) 
5.84512

>  <SCORE.SYSTEM.POLAR>  (18) 
-5.09577

>  <SCORE.SYSTEM.REPUL>  (18) 
0.03101

>  <SCORE.SYSTEM.VDW>  (18) 
-2.28958

>  <SCORE.SYSTEM.norm>  (18) 
-0.751709

>  <SCORE.heavy>  (18) 
22

>  <SCORE.norm>  (18) 
-0.44856

$$$$
denovo_401
     RDKit          3D

 22 23  0  0  0  0  0  0  0  0999 V2000
    4.8226    9.4986   -4.3246 C   0  0  0  0  0  0  0  0  0  0  0  0
    5.7285    9.2647   -3.2546 O   0  0  0  0  0  0  0  0  0  0  0  0
    5.3450    8.1283   -2.4769 C   0  0  0  0  0  0  0  0  0  0  0  0
    6.0183    8.1794   -1.0880 C   0  0  2  0  0  0  0  0  0  0  0  0
    5.2677    7.2664   -0.1245 C   0  0  0  0  0  0  0  0  0  0  0  0
    4.0001    6.7774   -0.4752 C   0  0  0  0  0  0  0  0  0  0  0  0
    3.2943    5.9425    0.3928 C   0  0  0  0  0  0  0  0  0  0  0  0
    3.8451    5.5867    1.6216 C   0  0  0  0  0  0  0  0  0  0  0  0
    5.1020    6.0654    1.9840 C   0  0  0  0  0  0  0  0  0  0  0  0
    5.8096    6.9008    1.1178 C   0  0  0  0  0  0  0  0  0  0  0  0
    6.1414    9.6217   -0.5335 C   0  0  2  0  0  0  0  0  0  0  0  0
    6.9990    9.7503    0.7297 C   0  0  0  0  0  0  0  0  0  0  0  0
    6.4835   10.9870    1.4721 C   0  0  0  0  0  0  0  0  0  0  0  0
    5.2392   11.4644    0.7184 C   0  0  2  0  0  0  0  0  0  0  0  0
    4.0858   12.0028    1.5824 C   0  0  0  0  0  0  0  0  0  0  0  0
    4.3181   13.3216    2.3966 C   0  0  0  0  0  0  0  0  0  0  0  0
    4.9792   12.9867    3.7492 C   0  0  0  0  0  0  0  0  0  0  0  0
    5.3253   14.1658    1.5750 C   0  0  0  0  0  0  0  0  0  0  0  0
    3.0009   14.1299    2.6196 C   0  0  1  0  0  0  0  0  0  0  0  0
    2.3395   14.6656    1.3495 C   0  0  0  0  0  0  0  0  0  0  0  0
    2.0148   13.3305    3.2751 O   0  0  0  0  0  0  0  0  0  0  0  0
    4.8089   10.2227   -0.0737 C   0  0  0  0  0  0  0  0  0  0  0  0
  1  2  1  0
  2  3  1  0
  4  3  1  6
  4  5  1  0
  5  6  2  0
  6  7  1  0
  7  8  2  0
  8  9  1  0
  9 10  2  0
  4 11  1  0
 11 12  1  1
 12 13  1  0
 13 14  1  0
 14 15  1  1
 15 16  1  0
 16 17  1  0
 16 18  1  0
 16 19  1  0
 19 20  1  6
 19 21  1  0
 14 22  1  0
 10  5  1  0
 22 11  1  0
M  END
>  <CHROM.0>  (19) 
-40.65078275,-73.21036518,72.56913990,69.97726753,70.08572171,68.23552150
-167.50262522,67.05311028

>  <CHROM.1>  (19) 
-160.45271971,161.02088942,-13.69689477,-170.61502021,65.77767946,-85.52134146
-64.02654747,68.25562681,4.74750053,10.12356980,0.54922710,-0.85155248,1.28532841
-0.23659439

>  <Name>  (19) 
denovo_401

>  <RI>  (19) 
-1.15655e+09

>  <Rbt.Current_Directory>  (19) 
/tmp/claude-0/-home-user-Rare-cancers/1af35c7f-7dc4-53ce-91d2-1631a2a10a85/scratchpad/smwork/cross/dock_metad-opened_v2-statematch

>  <Rbt.Executable>  (19) 
rbdock - v25.07-alpha

>  <Rbt.Library>  (19) 
libRbt.so (25.07, Buildalpha)

>  <Rbt.Parameter_File>  (19) 
/tmp/claude-0/-home-user-Rare-cancers/1af35c7f-7dc4-53ce-91d2-1631a2a10a85/scratchpad/rdroot/share/rDock/data/scripts/dock.prm

>  <Rbt.Receptor>  (19) 
rec.prm

>  <SCORE>  (19) 
-9.7204

>  <SCORE.INTER>  (19) 
5.22691

>  <SCORE.INTER.CONST>  (19) 
1

>  <SCORE.INTER.POLAR>  (19) 
-0.833648

>  <SCORE.INTER.REPUL>  (19) 
0.0220627

>  <SCORE.INTER.ROT>  (19) 
7

>  <SCORE.INTER.VDW>  (19) 
-4.449

>  <SCORE.INTER.norm>  (19) 
0.237587

>  <SCORE.INTRA>  (19) 
6.05795

>  <SCORE.INTRA.DIHEDRAL>  (19) 
4.09464

>  <SCORE.INTRA.DIHEDRAL.0>  (19) 
3.78927

>  <SCORE.INTRA.POLAR>  (19) 
0

>  <SCORE.INTRA.POLAR.0>  (19) 
0

>  <SCORE.INTRA.REPUL>  (19) 
0

>  <SCORE.INTRA.REPUL.0>  (19) 
0

>  <SCORE.INTRA.VDW>  (19) 
4.01063

>  <SCORE.INTRA.VDW.0>  (19) 
1.02728

>  <SCORE.INTRA.norm>  (19) 
0.275361

>  <SCORE.RESTR>  (19) 
0

>  <SCORE.RESTR.CAVITY>  (19) 
0

>  <SCORE.RESTR.norm>  (19) 
0

>  <SCORE.SYSTEM>  (19) 
-21.0052

>  <SCORE.SYSTEM.CONST>  (19) 
0

>  <SCORE.SYSTEM.DIHEDRAL>  (19) 
5.63892

>  <SCORE.SYSTEM.POLAR>  (19) 
-6.48611

>  <SCORE.SYSTEM.REPUL>  (19) 
0.00650069

>  <SCORE.SYSTEM.VDW>  (19) 
-1.80442

>  <SCORE.SYSTEM.norm>  (19) 
-0.954783

>  <SCORE.heavy>  (19) 
22

>  <SCORE.norm>  (19) 
-0.441835

$$$$
denovo_401
     RDKit          3D

 22 23  0  0  0  0  0  0  0  0999 V2000
    7.5923   12.1370   -3.5237 C   0  0  0  0  0  0  0  0  0  0  0  0
    8.3814   11.6047   -2.4680 O   0  0  0  0  0  0  0  0  0  0  0  0
    8.0026   12.1467   -1.2007 C   0  0  0  0  0  0  0  0  0  0  0  0
    6.6124   11.6166   -0.7867 C   0  0  2  0  0  0  0  0  0  0  0  0
    6.3263   12.0122    0.6578 C   0  0  0  0  0  0  0  0  0  0  0  0
    5.0398   12.4395    1.0198 C   0  0  0  0  0  0  0  0  0  0  0  0
    4.7566   12.8088    2.3359 C   0  0  0  0  0  0  0  0  0  0  0  0
    5.7546   12.7569    3.3060 C   0  0  0  0  0  0  0  0  0  0  0  0
    7.0369   12.3360    2.9613 C   0  0  0  0  0  0  0  0  0  0  0  0
    7.3226   11.9664    1.6457 C   0  0  0  0  0  0  0  0  0  0  0  0
    6.4637   10.0890   -1.0036 C   0  0  2  0  0  0  0  0  0  0  0  0
    5.8782    9.6898   -2.3621 C   0  0  0  0  0  0  0  0  0  0  0  0
    5.2037    8.3303   -2.1538 C   0  0  0  0  0  0  0  0  0  0  0  0
    5.2672    8.0343   -0.6530 C   0  0  2  0  0  0  0  0  0  0  0  0
    4.0372    7.3386   -0.0446 C   0  0  0  0  0  0  0  0  0  0  0  0
    4.2662    6.0865    0.8696 C   0  0  0  0  0  0  0  0  0  0  0  0
    4.7474    4.8986    0.0116 C   0  0  0  0  0  0  0  0  0  0  0  0
    5.4142    6.4634    1.8404 C   0  0  0  0  0  0  0  0  0  0  0  0
    2.9905    5.6921    1.6789 C   0  0  1  0  0  0  0  0  0  0  0  0
    2.8149    6.4136    3.0155 C   0  0  0  0  0  0  0  0  0  0  0  0
    1.8052    5.9553    0.9259 O   0  0  0  0  0  0  0  0  0  0  0  0
    5.4890    9.4187   -0.0296 C   0  0  0  0  0  0  0  0  0  0  0  0
  1  2  1  0
  2  3  1  0
  4  3  1  1
  4  5  1  0
  5  6  2  0
  6  7  1  0
  7  8  2  0
  8  9  1  0
  9 10  2  0
  4 11  1  0
 11 12  1  6
 12 13  1  0
 13 14  1  0
 14 15  1  1
 15 16  1  0
 16 17  1  0
 16 18  1  0
 16 19  1  0
 19 20  1  1
 19 21  1  0
 14 22  1  0
 10  5  1  0
 22 11  1  0
M  END
>  <CHROM.0>  (20) 
76.43969023,-174.70515690,153.03558927,66.11916469,-60.83083409,68.44220486
-168.52206397,72.16012750

>  <CHROM.1>  (20) 
69.87928952,170.57995055,139.71196735,-92.33574041,131.43740981,-70.17186372
-86.67415882,67.84120480,5.48396285,9.47247146,0.22852259,-0.40766409,-1.00957484
-2.28418853

>  <Name>  (20) 
denovo_401

>  <RI>  (20) 
-1.15655e+09

>  <Rbt.Current_Directory>  (20) 
/tmp/claude-0/-home-user-Rare-cancers/1af35c7f-7dc4-53ce-91d2-1631a2a10a85/scratchpad/smwork/cross/dock_metad-opened_v2-statematch

>  <Rbt.Executable>  (20) 
rbdock - v25.07-alpha

>  <Rbt.Library>  (20) 
libRbt.so (25.07, Buildalpha)

>  <Rbt.Parameter_File>  (20) 
/tmp/claude-0/-home-user-Rare-cancers/1af35c7f-7dc4-53ce-91d2-1631a2a10a85/scratchpad/rdroot/share/rDock/data/scripts/dock.prm

>  <Rbt.Receptor>  (20) 
rec.prm

>  <SCORE>  (20) 
-9.4900

>  <SCORE.INTER>  (20) 
-6.00466

>  <SCORE.INTER.CONST>  (20) 
1

>  <SCORE.INTER.POLAR>  (20) 
-0.680802

>  <SCORE.INTER.REPUL>  (20) 
0

>  <SCORE.INTER.ROT>  (20) 
7

>  <SCORE.INTER.VDW>  (20) 
-16.0899

>  <SCORE.INTER.norm>  (20) 
-0.272939

>  <SCORE.INTRA>  (20) 
11.3221

>  <SCORE.INTRA.DIHEDRAL>  (20) 
10.8969

>  <SCORE.INTRA.DIHEDRAL.0>  (20) 
3.78927

>  <SCORE.INTRA.POLAR>  (20) 
0

>  <SCORE.INTRA.POLAR.0>  (20) 
0

>  <SCORE.INTRA.REPUL>  (20) 
0

>  <SCORE.INTRA.REPUL.0>  (20) 
0

>  <SCORE.INTRA.VDW>  (20) 
5.87366

>  <SCORE.INTRA.VDW.0>  (20) 
1.02728

>  <SCORE.INTRA.norm>  (20) 
0.514642

>  <SCORE.RESTR>  (20) 
0

>  <SCORE.RESTR.CAVITY>  (20) 
0

>  <SCORE.RESTR.norm>  (20) 
0

>  <SCORE.SYSTEM>  (20) 
-14.8074

>  <SCORE.SYSTEM.CONST>  (20) 
0

>  <SCORE.SYSTEM.DIHEDRAL>  (20) 
6.38315

>  <SCORE.SYSTEM.POLAR>  (20) 
-4.53521

>  <SCORE.SYSTEM.VDW>  (20) 
-2.57932

>  <SCORE.SYSTEM.norm>  (20) 
-0.673066

>  <SCORE.heavy>  (20) 
22

>  <SCORE.norm>  (20) 
-0.431362

$$$$
denovo_401
     RDKit          3D

 22 23  0  0  0  0  0  0  0  0999 V2000
    0.4261   15.4779   -0.3887 C   0  0  0  0  0  0  0  0  0  0  0  0
    1.5095   16.0736    0.3126 O   0  0  0  0  0  0  0  0  0  0  0  0
    2.5170   15.1143    0.6412 C   0  0  0  0  0  0  0  0  0  0  0  0
    3.9026   15.7937    0.7010 C   0  0  2  0  0  0  0  0  0  0  0  0
    4.3038   16.2555   -0.6957 C   0  0  0  0  0  0  0  0  0  0  0  0
    5.6502   16.1990   -1.0865 C   0  0  0  0  0  0  0  0  0  0  0  0
    6.0400   16.6191   -2.3594 C   0  0  0  0  0  0  0  0  0  0  0  0
    5.0904   17.1016   -3.2569 C   0  0  0  0  0  0  0  0  0  0  0  0
    3.7502   17.1648   -2.8826 C   0  0  0  0  0  0  0  0  0  0  0  0
    3.3580   16.7455   -1.6101 C   0  0  0  0  0  0  0  0  0  0  0  0
    4.9872   14.8893    1.3400 C   0  0  2  0  0  0  0  0  0  0  0  0
    6.3457   15.5676    1.5457 C   0  0  0  0  0  0  0  0  0  0  0  0
    7.3903   14.4474    1.5235 C   0  0  0  0  0  0  0  0  0  0  0  0
    6.6476   13.1621    1.1487 C   0  0  2  0  0  0  0  0  0  0  0  0
    7.4008   12.1848    0.2298 C   0  0  0  0  0  0  0  0  0  0  0  0
    6.9065   10.6994    0.1576 C   0  0  0  0  0  0  0  0  0  0  0  0
    7.7504    9.9212   -0.8725 C   0  0  0  0  0  0  0  0  0  0  0  0
    7.1800   10.0838    1.5535 C   0  0  0  0  0  0  0  0  0  0  0  0
    5.3878   10.5877   -0.1870 C   0  0  1  0  0  0  0  0  0  0  0  0
    4.8705    9.1660   -0.4092 C   0  0  0  0  0  0  0  0  0  0  0  0
    4.5844   11.1452    0.8544 O   0  0  0  0  0  0  0  0  0  0  0  0
    5.3654   13.6775    0.4818 C   0  0  0  0  0  0  0  0  0  0  0  0
  1  2  1  0
  2  3  1  0
  4  3  1  6
  4  5  1  0
  5  6  2  0
  6  7  1  0
  7  8  2  0
  8  9  1  0
  9 10  2  0
  4 11  1  0
 11 12  1  6
 12 13  1  0
 13 14  1  0
 14 15  1  6
 15 16  1  0
 16 17  1  0
 16 18  1  0
 16 19  1  0
 19 20  1  1
 19 21  1  0
 14 22  1  0
 10  5  1  0
 22 11  1  0
M  END
>  <CHROM.0>  (21) 
163.29228277,-73.34966566,70.20222594,-176.60618071,73.38629400,67.28788040
-167.72027177,167.94234918

>  <CHROM.1>  (21) 
150.58496110,-67.12137434,-144.55368199,-174.34860683,161.84413805,176.98514265
174.21995050,-52.02760062,5.03043287,13.91645669,-0.10665405,2.05971187,0.12348484
-0.30860099

>  <Name>  (21) 
denovo_401

>  <RI>  (21) 
-1.15655e+09

>  <Rbt.Current_Directory>  (21) 
/tmp/claude-0/-home-user-Rare-cancers/1af35c7f-7dc4-53ce-91d2-1631a2a10a85/scratchpad/smwork/cross/dock_metad-opened_v2-statematch

>  <Rbt.Executable>  (21) 
rbdock - v25.07-alpha

>  <Rbt.Library>  (21) 
libRbt.so (25.07, Buildalpha)

>  <Rbt.Parameter_File>  (21) 
/tmp/claude-0/-home-user-Rare-cancers/1af35c7f-7dc4-53ce-91d2-1631a2a10a85/scratchpad/rdroot/share/rDock/data/scripts/dock.prm

>  <Rbt.Receptor>  (21) 
rec.prm

>  <SCORE>  (21) 
-8.8868

>  <SCORE.INTER>  (21) 
-0.712636

>  <SCORE.INTER.CONST>  (21) 
1

>  <SCORE.INTER.POLAR>  (21) 
-0.601698

>  <SCORE.INTER.REPUL>  (21) 
0

>  <SCORE.INTER.ROT>  (21) 
7

>  <SCORE.INTER.VDW>  (21) 
-11.0669

>  <SCORE.INTER.norm>  (21) 
-0.0323925

>  <SCORE.INTRA>  (21) 
8.92201

>  <SCORE.INTRA.DIHEDRAL>  (21) 
3.04903

>  <SCORE.INTRA.DIHEDRAL.0>  (21) 
3.78927

>  <SCORE.INTRA.POLAR>  (21) 
0

>  <SCORE.INTRA.POLAR.0>  (21) 
0

>  <SCORE.INTRA.REPUL>  (21) 
0

>  <SCORE.INTRA.REPUL.0>  (21) 
0

>  <SCORE.INTRA.VDW>  (21) 
7.3975

>  <SCORE.INTRA.VDW.0>  (21) 
1.02728

>  <SCORE.INTRA.norm>  (21) 
0.405546

>  <SCORE.RESTR>  (21) 
0.452865

>  <SCORE.RESTR.CAVITY>  (21) 
0.452865

>  <SCORE.RESTR.norm>  (21) 
0.0205848

>  <SCORE.SYSTEM>  (21) 
-17.549

>  <SCORE.SYSTEM.CONST>  (21) 
0

>  <SCORE.SYSTEM.DIHEDRAL>  (21) 
5.29584

>  <SCORE.SYSTEM.POLAR>  (21) 
-5.12039

>  <SCORE.SYSTEM.REPUL>  (21) 
0.0152201

>  <SCORE.SYSTEM.VDW>  (21) 
-2.86372

>  <SCORE.SYSTEM.norm>  (21) 
-0.797682

>  <SCORE.heavy>  (21) 
22

>  <SCORE.norm>  (21) 
-0.403944

$$$$
denovo_401
     RDKit          3D

 22 23  0  0  0  0  0  0  0  0999 V2000
    5.0675   12.7998    3.8069 C   0  0  0  0  0  0  0  0  0  0  0  0
    6.1806   12.0049    3.4202 O   0  0  0  0  0  0  0  0  0  0  0  0
    7.0482   12.7093    2.5290 C   0  0  0  0  0  0  0  0  0  0  0  0
    6.3336   12.9746    1.1859 C   0  0  2  0  0  0  0  0  0  0  0  0
    6.7413   11.9098    0.1734 C   0  0  0  0  0  0  0  0  0  0  0  0
    5.9068   10.8033   -0.0461 C   0  0  0  0  0  0  0  0  0  0  0  0
    6.2619    9.8156   -0.9663 C   0  0  0  0  0  0  0  0  0  0  0  0
    7.4548    9.9201   -1.6777 C   0  0  0  0  0  0  0  0  0  0  0  0
    8.2940   11.0122   -1.4696 C   0  0  0  0  0  0  0  0  0  0  0  0
    7.9412   12.0012   -0.5496 C   0  0  0  0  0  0  0  0  0  0  0  0
    6.5834   14.4058    0.6456 C   0  0  2  0  0  0  0  0  0  0  0  0
    7.1201   15.3967    1.6837 C   0  0  0  0  0  0  0  0  0  0  0  0
    6.6782   16.7868    1.2158 C   0  0  0  0  0  0  0  0  0  0  0  0
    5.7623   16.5727    0.0077 C   0  0  2  0  0  0  0  0  0  0  0  0
    4.5544   17.5188   -0.1059 C   0  0  0  0  0  0  0  0  0  0  0  0
    3.5726   17.3312   -1.3129 C   0  0  0  0  0  0  0  0  0  0  0  0
    4.3398   16.7578   -2.5217 C   0  0  0  0  0  0  0  0  0  0  0  0
    2.5349   16.2702   -0.8659 C   0  0  0  0  0  0  0  0  0  0  0  0
    2.8459   18.6556   -1.7077 C   0  0  1  0  0  0  0  0  0  0  0  0
    3.7635   19.8069   -2.1205 C   0  0  0  0  0  0  0  0  0  0  0  0
    1.9557   18.4434   -2.8047 O   0  0  0  0  0  0  0  0  0  0  0  0
    5.3140   15.1131    0.1596 C   0  0  0  0  0  0  0  0  0  0  0  0
  1  2  1  0
  2  3  1  0
  4  3  1  1
  4  5  1  0
  5  6  2  0
  6  7  1  0
  7  8  2  0
  8  9  1  0
  9 10  2  0
  4 11  1  0
 11 12  1  1
 12 13  1  0
 13 14  1  0
 14 15  1  1
 15 16  1  0
 16 17  1  0
 16 18  1  0
 16 19  1  0
 19 20  1  6
 19 21  1  0
 14 22  1  0
 10  5  1  0
 22 11  1  0
M  END
>  <CHROM.0>  (22) 
164.65788377,-73.47615430,-51.42843095,68.27640296,-178.88102429,68.14761770
-169.71258364,70.06805496

>  <CHROM.1>  (22) 
-66.35663922,-97.58150509,97.74527906,-16.85672617,-179.17287743,-29.49861779
59.55477004,68.13167442,5.48269634,14.59218946,-0.04806856,-0.09868381,-1.11147358
1.13228477

>  <Name>  (22) 
denovo_401

>  <RI>  (22) 
-1.15655e+09

>  <Rbt.Current_Directory>  (22) 
/tmp/claude-0/-home-user-Rare-cancers/1af35c7f-7dc4-53ce-91d2-1631a2a10a85/scratchpad/smwork/cross/dock_metad-opened_v2-statematch

>  <Rbt.Executable>  (22) 
rbdock - v25.07-alpha

>  <Rbt.Library>  (22) 
libRbt.so (25.07, Buildalpha)

>  <Rbt.Parameter_File>  (22) 
/tmp/claude-0/-home-user-Rare-cancers/1af35c7f-7dc4-53ce-91d2-1631a2a10a85/scratchpad/rdroot/share/rDock/data/scripts/dock.prm

>  <Rbt.Receptor>  (22) 
rec.prm

>  <SCORE>  (22) 
-8.2023

>  <SCORE.INTER>  (22) 
-1.85562

>  <SCORE.INTER.CONST>  (22) 
1

>  <SCORE.INTER.POLAR>  (22) 
0

>  <SCORE.INTER.REPUL>  (22) 
0

>  <SCORE.INTER.ROT>  (22) 
7

>  <SCORE.INTER.VDW>  (22) 
-14.2556

>  <SCORE.INTER.norm>  (22) 
-0.0843463

>  <SCORE.INTRA>  (22) 
9.43739

>  <SCORE.INTRA.DIHEDRAL>  (22) 
9.19966

>  <SCORE.INTRA.DIHEDRAL.0>  (22) 
3.78927

>  <SCORE.INTRA.POLAR>  (22) 
0

>  <SCORE.INTRA.POLAR.0>  (22) 
0

>  <SCORE.INTRA.REPUL>  (22) 
0

>  <SCORE.INTRA.REPUL.0>  (22) 
0

>  <SCORE.INTRA.VDW>  (22) 
4.83756

>  <SCORE.INTRA.VDW.0>  (22) 
1.02728

>  <SCORE.INTRA.norm>  (22) 
0.428972

>  <SCORE.RESTR>  (22) 
1.4483

>  <SCORE.RESTR.CAVITY>  (22) 
1.4483

>  <SCORE.RESTR.norm>  (22) 
0.0658317

>  <SCORE.SYSTEM>  (22) 
-17.2324

>  <SCORE.SYSTEM.CONST>  (22) 
0

>  <SCORE.SYSTEM.DIHEDRAL>  (22) 
4.07284

>  <SCORE.SYSTEM.POLAR>  (22) 
-5.60546

>  <SCORE.SYSTEM.REPUL>  (22) 
0.229752

>  <SCORE.SYSTEM.VDW>  (22) 
-1.35903

>  <SCORE.SYSTEM.norm>  (22) 
-0.783291

>  <SCORE.heavy>  (22) 
22

>  <SCORE.norm>  (22) 
-0.372834

$$$$
denovo_401
     RDKit          3D

 22 23  0  0  0  0  0  0  0  0999 V2000
    7.6504   14.5209   -0.1573 C   0  0  0  0  0  0  0  0  0  0  0  0
    6.5476   13.6647    0.1096 O   0  0  0  0  0  0  0  0  0  0  0  0
    6.1297   13.7518    1.4738 C   0  0  0  0  0  0  0  0  0  0  0  0
    4.9467   12.7933    1.7326 C   0  0  2  0  0  0  0  0  0  0  0  0
    4.4414   12.9818    3.1588 C   0  0  0  0  0  0  0  0  0  0  0  0
    5.3233   12.8123    4.2369 C   0  0  0  0  0  0  0  0  0  0  0  0
    4.8813   12.9774    5.5507 C   0  0  0  0  0  0  0  0  0  0  0  0
    3.5533   13.3126    5.8039 C   0  0  0  0  0  0  0  0  0  0  0  0
    2.6659   13.4829    4.7438 C   0  0  0  0  0  0  0  0  0  0  0  0
    3.1055   13.3180    3.4291 C   0  0  0  0  0  0  0  0  0  0  0  0
    5.2990   11.3126    1.4396 C   0  0  2  0  0  0  0  0  0  0  0  0
    6.6995   10.8867    1.8922 C   0  0  0  0  0  0  0  0  0  0  0  0
    7.1076    9.7241    0.9820 C   0  0  0  0  0  0  0  0  0  0  0  0
    6.0145    9.5953   -0.0822 C   0  0  2  0  0  0  0  0  0  0  0  0
    6.4864    9.2364   -1.5018 C   0  0  0  0  0  0  0  0  0  0  0  0
    5.4339    9.2520   -2.6628 C   0  0  0  0  0  0  0  0  0  0  0  0
    5.7589    8.1328   -3.6729 C   0  0  0  0  0  0  0  0  0  0  0  0
    4.0671    8.9186   -2.0123 C   0  0  0  0  0  0  0  0  0  0  0  0
    5.3580   10.6334   -3.3864 C   0  0  1  0  0  0  0  0  0  0  0  0
    6.7052   11.3017   -3.6630 C   0  0  0  0  0  0  0  0  0  0  0  0
    4.7063   10.5130   -4.6521 O   0  0  0  0  0  0  0  0  0  0  0  0
    5.3308   10.9687   -0.0533 C   0  0  0  0  0  0  0  0  0  0  0  0
  1  2  1  0
  2  3  1  0
  4  3  1  1
  4  5  1  0
  5  6  2  0
  6  7  1  0
  7  8  2  0
  8  9  1  0
  9 10  2  0
  4 11  1  0
 11 12  1  6
 12 13  1  0
 13 14  1  0
 14 15  1  6
 15 16  1  0
 16 17  1  0
 16 18  1  0
 16 19  1  0
 19 20  1  6
 19 21  1  0
 14 22  1  0
 10  5  1  0
 22 11  1  0
M  END
>  <CHROM.0>  (23) 
163.90166757,59.46972313,64.55666721,-54.82637512,71.66783564,68.23175989
-168.47231724,70.09870837

>  <CHROM.1>  (23) 
-179.09412306,-175.41997154,-57.23182376,40.21649916,-173.12916260,-144.96494022
42.20563082,58.08588711,5.40997757,11.52584434,0.42872047,-1.84955468,-0.99688927
-2.24848106

>  <Name>  (23) 
denovo_401

>  <RI>  (23) 
-1.15655e+09

>  <Rbt.Current_Directory>  (23) 
/tmp/claude-0/-home-user-Rare-cancers/1af35c7f-7dc4-53ce-91d2-1631a2a10a85/scratchpad/smwork/cross/dock_metad-opened_v2-statematch

>  <Rbt.Executable>  (23) 
rbdock - v25.07-alpha

>  <Rbt.Library>  (23) 
libRbt.so (25.07, Buildalpha)

>  <Rbt.Parameter_File>  (23) 
/tmp/claude-0/-home-user-Rare-cancers/1af35c7f-7dc4-53ce-91d2-1631a2a10a85/scratchpad/rdroot/share/rDock/data/scripts/dock.prm

>  <Rbt.Receptor>  (23) 
rec.prm

>  <SCORE>  (23) 
-7.8996

>  <SCORE.INTER>  (23) 
-2.75653

>  <SCORE.INTER.CONST>  (23) 
1

>  <SCORE.INTER.POLAR>  (23) 
0

>  <SCORE.INTER.REPUL>  (23) 
0.147104

>  <SCORE.INTER.ROT>  (23) 
7

>  <SCORE.INTER.VDW>  (23) 
-15.892

>  <SCORE.INTER.norm>  (23) 
-0.125297

>  <SCORE.INTRA>  (23) 
5.62001

>  <SCORE.INTRA.DIHEDRAL>  (23) 
4.22728

>  <SCORE.INTRA.DIHEDRAL.0>  (23) 
3.78927

>  <SCORE.INTRA.POLAR>  (23) 
0

>  <SCORE.INTRA.POLAR.0>  (23) 
0

>  <SCORE.INTRA.REPUL>  (23) 
0

>  <SCORE.INTRA.REPUL.0>  (23) 
0

>  <SCORE.INTRA.VDW>  (23) 
3.50637

>  <SCORE.INTRA.VDW.0>  (23) 
1.02728

>  <SCORE.INTRA.norm>  (23) 
0.255455

>  <SCORE.RESTR>  (23) 
0

>  <SCORE.RESTR.CAVITY>  (23) 
0

>  <SCORE.RESTR.norm>  (23) 
0

>  <SCORE.SYSTEM>  (23) 
-10.7631

>  <SCORE.SYSTEM.CONST>  (23) 
0

>  <SCORE.SYSTEM.DIHEDRAL>  (23) 
3.6332

>  <SCORE.SYSTEM.POLAR>  (23) 
-4.5367

>  <SCORE.SYSTEM.REPUL>  (23) 
0.712203

>  <SCORE.SYSTEM.VDW>  (23) 
-0.715906

>  <SCORE.SYSTEM.norm>  (23) 
-0.48923

>  <SCORE.heavy>  (23) 
22

>  <SCORE.norm>  (23) 
-0.359072

$$$$
denovo_401
     RDKit          3D

 22 23  0  0  0  0  0  0  0  0999 V2000
    7.6167   14.0874   -1.9464 C   0  0  0  0  0  0  0  0  0  0  0  0
    8.2044   13.4235   -0.8354 O   0  0  0  0  0  0  0  0  0  0  0  0
    8.1520   12.0025   -0.9813 C   0  0  0  0  0  0  0  0  0  0  0  0
    6.7449   11.4796   -0.6187 C   0  0  2  0  0  0  0  0  0  0  0  0
    6.3670   11.9614    0.7778 C   0  0  0  0  0  0  0  0  0  0  0  0
    7.2852   11.8299    1.8307 C   0  0  0  0  0  0  0  0  0  0  0  0
    6.9590   12.2618    3.1175 C   0  0  0  0  0  0  0  0  0  0  0  0
    5.7120   12.8292    3.3687 C   0  0  0  0  0  0  0  0  0  0  0  0
    4.7897   12.9650    2.3337 C   0  0  0  0  0  0  0  0  0  0  0  0
    5.1135   12.5335    1.0461 C   0  0  0  0  0  0  0  0  0  0  0  0
    6.6258    9.9394   -0.7460 C   0  0  2  0  0  0  0  0  0  0  0  0
    6.3418    9.4349   -2.1646 C   0  0  0  0  0  0  0  0  0  0  0  0
    5.6200    8.0932   -2.0044 C   0  0  0  0  0  0  0  0  0  0  0  0
    5.3543    7.9138   -0.5073 C   0  0  2  0  0  0  0  0  0  0  0  0
    4.0128    7.2631   -0.1281 C   0  0  0  0  0  0  0  0  0  0  0  0
    4.0371    5.9567    0.7373 C   0  0  0  0  0  0  0  0  0  0  0  0
    2.5972    5.4441    0.9435 C   0  0  0  0  0  0  0  0  0  0  0  0
    4.8001    4.8978   -0.0987 C   0  0  0  0  0  0  0  0  0  0  0  0
    4.7447    6.1611    2.1141 C   0  0  1  0  0  0  0  0  0  0  0  0
    6.1535    6.7513    2.0440 C   0  0  0  0  0  0  0  0  0  0  0  0
    3.9883    7.0355    2.9533 O   0  0  0  0  0  0  0  0  0  0  0  0
    5.4550    9.3428    0.0423 C   0  0  0  0  0  0  0  0  0  0  0  0
  1  2  1  0
  2  3  1  0
  4  3  1  1
  4  5  1  0
  5  6  2  0
  6  7  1  0
  7  8  2  0
  8  9  1  0
  9 10  2  0
  4 11  1  0
 11 12  1  6
 12 13  1  0
 13 14  1  0
 14 15  1  6
 15 16  1  0
 16 17  1  0
 16 18  1  0
 16 19  1  0
 19 20  1  6
 19 21  1  0
 14 22  1  0
 10  5  1  0
 22 11  1  0
M  END
>  <CHROM.0>  (24) 
-38.59444468,61.22811888,-47.17607630,65.60520222,73.09908154,67.74831864
-168.10942654,171.00740821

>  <CHROM.1>  (24) 
-79.23409276,-54.46419211,-47.44996897,-83.24331455,122.57406223,-177.43729058
-53.41268414,168.72546548,5.75391725,9.65691139,0.49960896,-0.56660976,-1.10438561
-2.29171411

>  <Name>  (24) 
denovo_401

>  <RI>  (24) 
-1.15655e+09

>  <Rbt.Current_Directory>  (24) 
/tmp/claude-0/-home-user-Rare-cancers/1af35c7f-7dc4-53ce-91d2-1631a2a10a85/scratchpad/smwork/cross/dock_metad-opened_v2-statematch

>  <Rbt.Executable>  (24) 
rbdock - v25.07-alpha

>  <Rbt.Library>  (24) 
libRbt.so (25.07, Buildalpha)

>  <Rbt.Parameter_File>  (24) 
/tmp/claude-0/-home-user-Rare-cancers/1af35c7f-7dc4-53ce-91d2-1631a2a10a85/scratchpad/rdroot/share/rDock/data/scripts/dock.prm

>  <Rbt.Receptor>  (24) 
rec.prm

>  <SCORE>  (24) 
-6.1866

>  <SCORE.INTER>  (24) 
-3.10768

>  <SCORE.INTER.CONST>  (24) 
1

>  <SCORE.INTER.POLAR>  (24) 
-0.245649

>  <SCORE.INTER.REPUL>  (24) 
0

>  <SCORE.INTER.ROT>  (24) 
7

>  <SCORE.INTER.VDW>  (24) 
-14.6725

>  <SCORE.INTER.norm>  (24) 
-0.141258

>  <SCORE.INTRA>  (24) 
6.31642

>  <SCORE.INTRA.DIHEDRAL>  (24) 
7.98887

>  <SCORE.INTRA.DIHEDRAL.0>  (24) 
3.78927

>  <SCORE.INTRA.POLAR>  (24) 
0

>  <SCORE.INTRA.POLAR.0>  (24) 
0

>  <SCORE.INTRA.REPUL>  (24) 
0

>  <SCORE.INTRA.REPUL.0>  (24) 
0

>  <SCORE.INTRA.VDW>  (24) 
2.32198

>  <SCORE.INTRA.VDW.0>  (24) 
1.02728

>  <SCORE.INTRA.norm>  (24) 
0.28711

>  <SCORE.RESTR>  (24) 
0

>  <SCORE.RESTR.CAVITY>  (24) 
0

>  <SCORE.RESTR.norm>  (24) 
0

>  <SCORE.SYSTEM>  (24) 
-9.39535

>  <SCORE.SYSTEM.CONST>  (24) 
0

>  <SCORE.SYSTEM.DIHEDRAL>  (24) 
5.21801

>  <SCORE.SYSTEM.POLAR>  (24) 
-3.94868

>  <SCORE.SYSTEM.REPUL>  (24) 
0.558616

>  <SCORE.SYSTEM.VDW>  (24) 
-1.37192

>  <SCORE.SYSTEM.norm>  (24) 
-0.427061

>  <SCORE.heavy>  (24) 
22

>  <SCORE.norm>  (24) 
-0.28121

$$$$
denovo_401
     RDKit          3D

 22 23  0  0  0  0  0  0  0  0999 V2000
    0.6274   13.3207    4.0220 C   0  0  0  0  0  0  0  0  0  0  0  0
    1.7907   13.4627    3.2177 O   0  0  0  0  0  0  0  0  0  0  0  0
    1.5168   14.1877    2.0165 C   0  0  0  0  0  0  0  0  0  0  0  0
    2.8086   14.8439    1.4820 C   0  0  2  0  0  0  0  0  0  0  0  0
    2.4864   15.6607    0.2354 C   0  0  0  0  0  0  0  0  0  0  0  0
    3.3078   16.7416   -0.1190 C   0  0  0  0  0  0  0  0  0  0  0  0
    3.0298   17.5044   -1.2546 C   0  0  0  0  0  0  0  0  0  0  0  0
    1.9278   17.1978   -2.0493 C   0  0  0  0  0  0  0  0  0  0  0  0
    1.1025   16.1284   -1.7093 C   0  0  0  0  0  0  0  0  0  0  0  0
    1.3783   15.3643   -0.5740 C   0  0  0  0  0  0  0  0  0  0  0  0
    3.9389   13.8164    1.2186 C   0  0  2  0  0  0  0  0  0  0  0  0
    4.5499   13.1999    2.4811 C   0  0  0  0  0  0  0  0  0  0  0  0
    5.9790   12.7924    2.1091 C   0  0  0  0  0  0  0  0  0  0  0  0
    6.2307   13.3182    0.6933 C   0  0  2  0  0  0  0  0  0  0  0  0
    7.6425   13.8600    0.4103 C   0  0  0  0  0  0  0  0  0  0  0  0
    8.1466   13.8861   -1.0734 C   0  0  0  0  0  0  0  0  0  0  0  0
    7.2497   14.8216   -1.9097 C   0  0  0  0  0  0  0  0  0  0  0  0
    9.5679   14.5032   -1.0368 C   0  0  0  0  0  0  0  0  0  0  0  0
    8.1983   12.4639   -1.7155 C   0  0  1  0  0  0  0  0  0  0  0  0
    8.7092   12.4149   -3.1558 C   0  0  0  0  0  0  0  0  0  0  0  0
    9.0449   11.5932   -0.9631 O   0  0  0  0  0  0  0  0  0  0  0  0
    5.1704   14.4153    0.5310 C   0  0  0  0  0  0  0  0  0  0  0  0
  1  2  1  0
  2  3  1  0
  4  3  1  6
  4  5  1  0
  5  6  2  0
  6  7  1  0
  7  8  2  0
  8  9  1  0
  9 10  2  0
  4 11  1  0
 11 12  1  1
 12 13  1  0
 13 14  1  0
 14 15  1  1
 15 16  1  0
 16 17  1  0
 16 18  1  0
 16 19  1  0
 19 20  1  6
 19 21  1  0
 14 22  1  0
 10  5  1  0
 22 11  1  0
M  END
>  <CHROM.0>  (25) 
165.16924007,-75.68967614,-49.38388301,68.57934957,72.07118237,68.21722067
-166.90559595,69.07316580

>  <CHROM.1>  (25) 
155.76958067,-177.60249059,154.49898077,-70.17422434,156.53495987,62.69010699
-178.81663567,171.98478799,4.82015329,14.26435659,0.15384279,-3.01763090
0.41490243,-0.94447977

>  <Name>  (25) 
denovo_401

>  <RI>  (25) 
-1.15655e+09

>  <Rbt.Current_Directory>  (25) 
/tmp/claude-0/-home-user-Rare-cancers/1af35c7f-7dc4-53ce-91d2-1631a2a10a85/scratchpad/smwork/cross/dock_metad-opened_v2-statematch

>  <Rbt.Executable>  (25) 
rbdock - v25.07-alpha

>  <Rbt.Library>  (25) 
libRbt.so (25.07, Buildalpha)

>  <Rbt.Parameter_File>  (25) 
/tmp/claude-0/-home-user-Rare-cancers/1af35c7f-7dc4-53ce-91d2-1631a2a10a85/scratchpad/rdroot/share/rDock/data/scripts/dock.prm

>  <Rbt.Receptor>  (25) 
rec.prm

>  <SCORE>  (25) 
-6.1741

>  <SCORE.INTER>  (25) 
7.88352

>  <SCORE.INTER.CONST>  (25) 
1

>  <SCORE.INTER.POLAR>  (25) 
-0.518151

>  <SCORE.INTER.REPUL>  (25) 
0

>  <SCORE.INTER.ROT>  (25) 
7

>  <SCORE.INTER.VDW>  (25) 
-2.75476

>  <SCORE.INTER.norm>  (25) 
0.358342

>  <SCORE.INTRA>  (25) 
3.99036

>  <SCORE.INTRA.DIHEDRAL>  (25) 
2.60492

>  <SCORE.INTRA.DIHEDRAL.0>  (25) 
3.78927

>  <SCORE.INTRA.POLAR>  (25) 
0

>  <SCORE.INTRA.POLAR.0>  (25) 
0

>  <SCORE.INTRA.REPUL>  (25) 
0

>  <SCORE.INTRA.REPUL.0>  (25) 
0

>  <SCORE.INTRA.VDW>  (25) 
2.6879

>  <SCORE.INTRA.VDW.0>  (25) 
1.02728

>  <SCORE.INTRA.norm>  (25) 
0.18138

>  <SCORE.RESTR>  (25) 
0

>  <SCORE.RESTR.CAVITY>  (25) 
0

>  <SCORE.RESTR.norm>  (25) 
0

>  <SCORE.SYSTEM>  (25) 
-18.048

>  <SCORE.SYSTEM.CONST>  (25) 
0

>  <SCORE.SYSTEM.DIHEDRAL>  (25) 
5.40291

>  <SCORE.SYSTEM.POLAR>  (25) 
-5.62102

>  <SCORE.SYSTEM.REPUL>  (25) 
0.133346

>  <SCORE.SYSTEM.VDW>  (25) 
-2.30471

>  <SCORE.SYSTEM.norm>  (25) 
-0.820363

>  <SCORE.heavy>  (25) 
22

>  <SCORE.norm>  (25) 
-0.280641

$$$$
denovo_401
     RDKit          3D

 22 23  0  0  0  0  0  0  0  0999 V2000
    5.5338   13.2400   -5.3124 C   0  0  0  0  0  0  0  0  0  0  0  0
    6.1302   11.9515   -5.2448 O   0  0  0  0  0  0  0  0  0  0  0  0
    5.2714   11.0051   -4.6045 C   0  0  0  0  0  0  0  0  0  0  0  0
    6.0948   10.0634   -3.6989 C   0  0  2  0  0  0  0  0  0  0  0  0
    5.1518    9.2511   -2.8180 C   0  0  0  0  0  0  0  0  0  0  0  0
    5.6667    8.2301   -2.0049 C   0  0  0  0  0  0  0  0  0  0  0  0
    4.8211    7.4724   -1.1928 C   0  0  0  0  0  0  0  0  0  0  0  0
    3.4513    7.7244   -1.1835 C   0  0  0  0  0  0  0  0  0  0  0  0
    2.9254    8.7339   -1.9864 C   0  0  0  0  0  0  0  0  0  0  0  0
    3.7691    9.4927   -2.7997 C   0  0  0  0  0  0  0  0  0  0  0  0
    7.1581   10.8165   -2.8593 C   0  0  2  0  0  0  0  0  0  0  0  0
    8.1469    9.9107   -2.1181 C   0  0  0  0  0  0  0  0  0  0  0  0
    8.6264   10.7074   -0.9008 C   0  0  0  0  0  0  0  0  0  0  0  0
    7.7963   11.9934   -0.8632 C   0  0  2  0  0  0  0  0  0  0  0  0
    7.3858   12.4971    0.5312 C   0  0  0  0  0  0  0  0  0  0  0  0
    6.8713   13.9711    0.6689 C   0  0  0  0  0  0  0  0  0  0  0  0
    5.3302   13.9904    0.6102 C   0  0  0  0  0  0  0  0  0  0  0  0
    7.2959   14.4476    2.0813 C   0  0  0  0  0  0  0  0  0  0  0  0
    7.4695   14.9201   -0.4170 C   0  0  1  0  0  0  0  0  0  0  0  0
    8.9675   14.7559   -0.6756 C   0  0  0  0  0  0  0  0  0  0  0  0
    6.8246   14.7267   -1.6771 O   0  0  0  0  0  0  0  0  0  0  0  0
    6.5674   11.6447   -1.7133 C   0  0  0  0  0  0  0  0  0  0  0  0
  1  2  1  0
  2  3  1  0
  4  3  1  1
  4  5  1  0
  5  6  2  0
  6  7  1  0
  7  8  2  0
  8  9  1  0
  9 10  2  0
  4 11  1  0
 11 12  1  1
 12 13  1  0
 13 14  1  0
 14 15  1  1
 15 16  1  0
 16 17  1  0
 16 18  1  0
 16 19  1  0
 19 20  1  6
 19 21  1  0
 14 22  1  0
 10  5  1  0
 22 11  1  0
M  END
>  <CHROM.0>  (26) 
-37.13242535,-72.44420939,67.58159706,177.52678769,-57.54616264,67.97168773
-168.06059726,170.05400587

>  <CHROM.1>  (26) 
-140.89004431,168.79535838,173.66836104,-170.63115242,164.35424324,95.28707601
-43.80952392,81.72568950,6.27454282,11.54879519,-1.74964317,-2.92476360,1.12433289
1.81556620

>  <Name>  (26) 
denovo_401

>  <RI>  (26) 
-1.15655e+09

>  <Rbt.Current_Directory>  (26) 
/tmp/claude-0/-home-user-Rare-cancers/1af35c7f-7dc4-53ce-91d2-1631a2a10a85/scratchpad/smwork/cross/dock_metad-opened_v2-statematch

>  <Rbt.Executable>  (26) 
rbdock - v25.07-alpha

>  <Rbt.Library>  (26) 
libRbt.so (25.07, Buildalpha)

>  <Rbt.Parameter_File>  (26) 
/tmp/claude-0/-home-user-Rare-cancers/1af35c7f-7dc4-53ce-91d2-1631a2a10a85/scratchpad/rdroot/share/rDock/data/scripts/dock.prm

>  <Rbt.Receptor>  (26) 
rec.prm

>  <SCORE>  (26) 
-5.6873

>  <SCORE.INTER>  (26) 
2.6653

>  <SCORE.INTER.CONST>  (26) 
1

>  <SCORE.INTER.POLAR>  (26) 
0

>  <SCORE.INTER.REPUL>  (26) 
0.089736

>  <SCORE.INTER.ROT>  (26) 
7

>  <SCORE.INTER.VDW>  (26) 
-10.1834

>  <SCORE.INTER.norm>  (26) 
0.12115

>  <SCORE.INTRA>  (26) 
7.6609

>  <SCORE.INTRA.DIHEDRAL>  (26) 
11.0692

>  <SCORE.INTRA.DIHEDRAL.0>  (26) 
3.78927

>  <SCORE.INTRA.POLAR>  (26) 
0

>  <SCORE.INTRA.POLAR.0>  (26) 
0

>  <SCORE.INTRA.REPUL>  (26) 
0

>  <SCORE.INTRA.REPUL.0>  (26) 
0

>  <SCORE.INTRA.VDW>  (26) 
2.12632

>  <SCORE.INTRA.VDW.0>  (26) 
1.02728

>  <SCORE.INTRA.norm>  (26) 
0.348223

>  <SCORE.RESTR>  (26) 
0.178613

>  <SCORE.RESTR.CAVITY>  (26) 
0.178613

>  <SCORE.RESTR.norm>  (26) 
0.00811877

>  <SCORE.SYSTEM>  (26) 
-16.1921

>  <SCORE.SYSTEM.CONST>  (26) 
0

>  <SCORE.SYSTEM.DIHEDRAL>  (26) 
4.90444

>  <SCORE.SYSTEM.POLAR>  (26) 
-5.11593

>  <SCORE.SYSTEM.VDW>  (26) 
-1.25016

>  <SCORE.SYSTEM.norm>  (26) 
-0.736004

>  <SCORE.heavy>  (26) 
22

>  <SCORE.norm>  (26) 
-0.258513

$$$$
denovo_401
     RDKit          3D

 22 23  0  0  0  0  0  0  0  0999 V2000
    9.1824   14.5159   -1.9416 C   0  0  0  0  0  0  0  0  0  0  0  0
    8.7903   13.1704   -2.1787 O   0  0  0  0  0  0  0  0  0  0  0  0
    7.7190   12.7735   -1.3196 C   0  0  0  0  0  0  0  0  0  0  0  0
    7.3974   11.2767   -1.5230 C   0  0  2  0  0  0  0  0  0  0  0  0
    6.6676   11.0885   -2.8485 C   0  0  0  0  0  0  0  0  0  0  0  0
    7.2265   11.6016   -4.0289 C   0  0  0  0  0  0  0  0  0  0  0  0
    6.5741   11.4429   -5.2528 C   0  0  0  0  0  0  0  0  0  0  0  0
    5.3555   10.7711   -5.3127 C   0  0  0  0  0  0  0  0  0  0  0  0
    4.7877   10.2575   -4.1491 C   0  0  0  0  0  0  0  0  0  0  0  0
    5.4381   10.4151   -2.9239 C   0  0  0  0  0  0  0  0  0  0  0  0
    6.6035   10.6673   -0.3393 C   0  0  2  0  0  0  0  0  0  0  0  0
    7.3696   10.6181    0.9867 C   0  0  0  0  0  0  0  0  0  0  0  0
    6.7658    9.4594    1.7862 C   0  0  0  0  0  0  0  0  0  0  0  0
    5.7731    8.7554    0.8572 C   0  0  2  0  0  0  0  0  0  0  0  0
    5.7099    7.2221    0.9662 C   0  0  0  0  0  0  0  0  0  0  0  0
    4.4192    6.4921    0.4588 C   0  0  0  0  0  0  0  0  0  0  0  0
    3.8567    7.2293   -0.7737 C   0  0  0  0  0  0  0  0  0  0  0  0
    4.8714    5.0823   -0.0001 C   0  0  0  0  0  0  0  0  0  0  0  0
    3.3248    6.3679    1.5654 C   0  0  1  0  0  0  0  0  0  0  0  0
    2.1598    5.4357    1.2313 C   0  0  0  0  0  0  0  0  0  0  0  0
    3.8849    5.8829    2.7869 O   0  0  0  0  0  0  0  0  0  0  0  0
    6.2256    9.1960   -0.5411 C   0  0  0  0  0  0  0  0  0  0  0  0
  1  2  1  0
  2  3  1  0
  4  3  1  1
  4  5  1  0
  5  6  2  0
  6  7  1  0
  7  8  2  0
  8  9  1  0
  9 10  2  0
  4 11  1  0
 11 12  1  1
 12 13  1  0
 13 14  1  0
 14 15  1  6
 15 16  1  0
 16 17  1  0
 16 18  1  0
 16 19  1  0
 19 20  1  6
 19 21  1  0
 14 22  1  0
 10  5  1  0
 22 11  1  0
M  END
>  <CHROM.0>  (27) 
-35.87177762,-73.61339577,70.31212871,-176.57130824,72.01813028,67.55995910
-166.41076685,168.03930054

>  <CHROM.1>  (27) 
-175.36903575,-73.91917001,53.07154673,-65.41153223,158.54059062,35.11216510
-168.51959895,70.52987257,5.90988766,9.49430006,-0.94110570,-0.84260395,0.86665553
1.94818643

>  <Name>  (27) 
denovo_401

>  <RI>  (27) 
-1.15655e+09

>  <Rbt.Current_Directory>  (27) 
/tmp/claude-0/-home-user-Rare-cancers/1af35c7f-7dc4-53ce-91d2-1631a2a10a85/scratchpad/smwork/cross/dock_metad-opened_v2-statematch

>  <Rbt.Executable>  (27) 
rbdock - v25.07-alpha

>  <Rbt.Library>  (27) 
libRbt.so (25.07, Buildalpha)

>  <Rbt.Parameter_File>  (27) 
/tmp/claude-0/-home-user-Rare-cancers/1af35c7f-7dc4-53ce-91d2-1631a2a10a85/scratchpad/rdroot/share/rDock/data/scripts/dock.prm

>  <Rbt.Receptor>  (27) 
rec.prm

>  <SCORE>  (27) 
-5.4934

>  <SCORE.INTER>  (27) 
4.088

>  <SCORE.INTER.CONST>  (27) 
1

>  <SCORE.INTER.POLAR>  (27) 
0

>  <SCORE.INTER.REPUL>  (27) 
0

>  <SCORE.INTER.ROT>  (27) 
7

>  <SCORE.INTER.VDW>  (27) 
-8.312

>  <SCORE.INTER.norm>  (27) 
0.185818

>  <SCORE.INTRA>  (27) 
6.99687

>  <SCORE.INTRA.DIHEDRAL>  (27) 
3.73777

>  <SCORE.INTRA.DIHEDRAL.0>  (27) 
3.78927

>  <SCORE.INTRA.POLAR>  (27) 
0

>  <SCORE.INTRA.POLAR.0>  (27) 
0

>  <SCORE.INTRA.REPUL>  (27) 
0

>  <SCORE.INTRA.REPUL.0>  (27) 
0

>  <SCORE.INTRA.VDW>  (27) 
5.12799

>  <SCORE.INTRA.VDW.0>  (27) 
1.02728

>  <SCORE.INTRA.norm>  (27) 
0.31804

>  <SCORE.RESTR>  (27) 
0

>  <SCORE.RESTR.CAVITY>  (27) 
0

>  <SCORE.RESTR.norm>  (27) 
0

>  <SCORE.SYSTEM>  (27) 
-16.5783

>  <SCORE.SYSTEM.CONST>  (27) 
0

>  <SCORE.SYSTEM.DIHEDRAL>  (27) 
6.54181

>  <SCORE.SYSTEM.POLAR>  (27) 
-5.11666

>  <SCORE.SYSTEM.REPUL>  (27) 
0.0117204

>  <SCORE.SYSTEM.VDW>  (27) 
-2.51112

>  <SCORE.SYSTEM.norm>  (27) 
-0.753557

>  <SCORE.heavy>  (27) 
22

>  <SCORE.norm>  (27) 
-0.2497

$$$$
denovo_401
     RDKit          3D

 22 23  0  0  0  0  0  0  0  0999 V2000
    5.9041   12.3197   -5.1465 C   0  0  0  0  0  0  0  0  0  0  0  0
    7.0702   12.5276   -4.3606 O   0  0  0  0  0  0  0  0  0  0  0  0
    7.4439   11.3463   -3.6476 C   0  0  0  0  0  0  0  0  0  0  0  0
    6.4897   11.1175   -2.4551 C   0  0  2  0  0  0  0  0  0  0  0  0
    6.8786   12.0428   -1.3072 C   0  0  0  0  0  0  0  0  0  0  0  0
    6.1323   12.0282   -0.1190 C   0  0  0  0  0  0  0  0  0  0  0  0
    6.4692   12.8687    0.9434 C   0  0  0  0  0  0  0  0  0  0  0  0
    7.5545   13.7345    0.8319 C   0  0  0  0  0  0  0  0  0  0  0  0
    8.3039   13.7611   -0.3419 C   0  0  0  0  0  0  0  0  0  0  0  0
    7.9688   12.9217   -1.4059 C   0  0  0  0  0  0  0  0  0  0  0  0
    6.4368    9.6353   -2.0047 C   0  0  2  0  0  0  0  0  0  0  0  0
    5.8985    8.6646   -3.0609 C   0  0  0  0  0  0  0  0  0  0  0  0
    5.3039    7.4816   -2.2906 C   0  0  0  0  0  0  0  0  0  0  0  0
    5.3607    7.8516   -0.8060 C   0  0  2  0  0  0  0  0  0  0  0  0
    4.1652    7.4038    0.0526 C   0  0  0  0  0  0  0  0  0  0  0  0
    4.3141    6.1050    0.9170 C   0  0  0  0  0  0  0  0  0  0  0  0
    2.9358    5.6891    1.4702 C   0  0  0  0  0  0  0  0  0  0  0  0
    4.7893    4.9924   -0.0518 C   0  0  0  0  0  0  0  0  0  0  0  0
    5.3403    6.2729    2.0818 C   0  0  1  0  0  0  0  0  0  0  0  0
    6.6486    6.9691    1.7054 C   0  0  0  0  0  0  0  0  0  0  0  0
    4.7787    7.0333    3.1529 O   0  0  0  0  0  0  0  0  0  0  0  0
    5.4886    9.3804   -0.8282 C   0  0  0  0  0  0  0  0  0  0  0  0
  1  2  1  0
  2  3  1  0
  4  3  1  6
  4  5  1  0
  5  6  2  0
  6  7  1  0
  7  8  2  0
  8  9  1  0
  9 10  2  0
  4 11  1  0
 11 12  1  6
 12 13  1  0
 13 14  1  0
 14 15  1  1
 15 16  1  0
 16 17  1  0
 16 18  1  0
 16 19  1  0
 19 20  1  6
 19 21  1  0
 14 22  1  0
 10  5  1  0
 22 11  1  0
M  END
>  <CHROM.0>  (28) 
79.88099742,-72.35628453,69.90409519,67.27216150,69.83654145,-176.34440120
71.44468703,71.80317298

>  <CHROM.1>  (28) 
-74.74613127,-78.60317324,178.86458127,-62.79751480,99.34175441,-168.95224202
-44.37506634,173.85929184,5.95509889,9.57086414,-0.75622279,0.53719830,-1.18011779
-1.50388269

>  <Name>  (28) 
denovo_401

>  <RI>  (28) 
-1.15655e+09

>  <Rbt.Current_Directory>  (28) 
/tmp/claude-0/-home-user-Rare-cancers/1af35c7f-7dc4-53ce-91d2-1631a2a10a85/scratchpad/smwork/cross/dock_metad-opened_v2-statematch

>  <Rbt.Executable>  (28) 
rbdock - v25.07-alpha

>  <Rbt.Library>  (28) 
libRbt.so (25.07, Buildalpha)

>  <Rbt.Parameter_File>  (28) 
/tmp/claude-0/-home-user-Rare-cancers/1af35c7f-7dc4-53ce-91d2-1631a2a10a85/scratchpad/rdroot/share/rDock/data/scripts/dock.prm

>  <Rbt.Receptor>  (28) 
rec.prm

>  <SCORE>  (28) 
-4.9167

>  <SCORE.INTER>  (28) 
0.739712

>  <SCORE.INTER.CONST>  (28) 
1

>  <SCORE.INTER.POLAR>  (28) 
-0.818994

>  <SCORE.INTER.REPUL>  (28) 
0

>  <SCORE.INTER.ROT>  (28) 
7

>  <SCORE.INTER.VDW>  (28) 
-8.87571

>  <SCORE.INTER.norm>  (28) 
0.0336233

>  <SCORE.INTRA>  (28) 
8.84378

>  <SCORE.INTRA.DIHEDRAL>  (28) 
5.38538

>  <SCORE.INTRA.DIHEDRAL.0>  (28) 
3.78927

>  <SCORE.INTRA.POLAR>  (28) 
0

>  <SCORE.INTRA.POLAR.0>  (28) 
0

>  <SCORE.INTRA.REPUL>  (28) 
0

>  <SCORE.INTRA.REPUL.0>  (28) 
0

>  <SCORE.INTRA.VDW>  (28) 
6.15109

>  <SCORE.INTRA.VDW.0>  (28) 
1.02728

>  <SCORE.INTRA.norm>  (28) 
0.40199

>  <SCORE.RESTR>  (28) 
0

>  <SCORE.RESTR.CAVITY>  (28) 
0

>  <SCORE.RESTR.norm>  (28) 
0

>  <SCORE.SYSTEM>  (28) 
-14.5002

>  <SCORE.SYSTEM.CONST>  (28) 
0

>  <SCORE.SYSTEM.DIHEDRAL>  (28) 
5.14221

>  <SCORE.SYSTEM.POLAR>  (28) 
-4.49177

>  <SCORE.SYSTEM.REPUL>  (28) 
0.0933218

>  <SCORE.SYSTEM.VDW>  (28) 
-2.26588

>  <SCORE.SYSTEM.norm>  (28) 
-0.659099

>  <SCORE.heavy>  (28) 
22

>  <SCORE.norm>  (28) 
-0.223486

$$$$
denovo_401
     RDKit          3D

 22 23  0  0  0  0  0  0  0  0999 V2000
    1.9211   15.1141    0.7649 C   0  0  0  0  0  0  0  0  0  0  0  0
    3.0907   14.8517    1.5288 O   0  0  0  0  0  0  0  0  0  0  0  0
    3.3588   13.4506    1.6196 C   0  0  0  0  0  0  0  0  0  0  0  0
    4.8408   13.2124    1.9825 C   0  0  2  0  0  0  0  0  0  0  0  0
    5.6755   14.4021    1.5209 C   0  0  0  0  0  0  0  0  0  0  0  0
    6.8398   14.7487    2.2230 C   0  0  0  0  0  0  0  0  0  0  0  0
    7.6173   15.8356    1.8195 C   0  0  0  0  0  0  0  0  0  0  0  0
    7.2410   16.5901    0.7109 C   0  0  0  0  0  0  0  0  0  0  0  0
    6.0869   16.2589    0.0047 C   0  0  0  0  0  0  0  0  0  0  0  0
    5.3076   15.1726    0.4066 C   0  0  0  0  0  0  0  0  0  0  0  0
    5.3886   11.8752    1.4217 C   0  0  2  0  0  0  0  0  0  0  0  0
    6.5550   11.2784    2.2159 C   0  0  0  0  0  0  0  0  0  0  0  0
    7.3556   10.4276    1.2252 C   0  0  0  0  0  0  0  0  0  0  0  0
    6.7405   10.6672   -0.1562 C   0  0  2  0  0  0  0  0  0  0  0  0
    7.7248   10.7327   -1.3368 C   0  0  0  0  0  0  0  0  0  0  0  0
    7.2700   11.4645   -2.6459 C   0  0  0  0  0  0  0  0  0  0  0  0
    7.3021   12.9906   -2.4251 C   0  0  0  0  0  0  0  0  0  0  0  0
    8.3293   11.1211   -3.7240 C   0  0  0  0  0  0  0  0  0  0  0  0
    5.8543   11.0134   -3.1255 C   0  0  1  0  0  0  0  0  0  0  0  0
    5.4668   11.4640   -4.5344 C   0  0  0  0  0  0  0  0  0  0  0  0
    5.7412    9.5893   -3.1180 O   0  0  0  0  0  0  0  0  0  0  0  0
    5.9902   11.9943    0.0174 C   0  0  0  0  0  0  0  0  0  0  0  0
  1  2  1  0
  2  3  1  0
  4  3  1  6
  4  5  1  0
  5  6  2  0
  6  7  1  0
  7  8  2  0
  8  9  1  0
  9 10  2  0
  4 11  1  0
 11 12  1  1
 12 13  1  0
 13 14  1  0
 14 15  1  6
 15 16  1  0
 16 17  1  0
 16 18  1  0
 16 19  1  0
 19 20  1  6
 19 21  1  0
 14 22  1  0
 10  5  1  0
 22 11  1  0
M  END
>  <CHROM.0>  (29) 
167.18944088,-77.98552925,69.75525304,-52.51072977,-55.81248278,69.57181621
-165.93036014,71.47785434

>  <CHROM.1>  (29) 
159.49447831,-25.69899829,150.19173066,-153.66254132,-158.29770648,75.01144012
-168.03753534,176.44884695,5.94583134,12.86627908,-0.23039539,1.90136536
-0.43638310,0.94787976

>  <Name>  (29) 
denovo_401

>  <RI>  (29) 
-1.15655e+09

>  <Rbt.Current_Directory>  (29) 
/tmp/claude-0/-home-user-Rare-cancers/1af35c7f-7dc4-53ce-91d2-1631a2a10a85/scratchpad/smwork/cross/dock_metad-opened_v2-statematch

>  <Rbt.Executable>  (29) 
rbdock - v25.07-alpha

>  <Rbt.Library>  (29) 
libRbt.so (25.07, Buildalpha)

>  <Rbt.Parameter_File>  (29) 
/tmp/claude-0/-home-user-Rare-cancers/1af35c7f-7dc4-53ce-91d2-1631a2a10a85/scratchpad/rdroot/share/rDock/data/scripts/dock.prm

>  <Rbt.Receptor>  (29) 
rec.prm

>  <SCORE>  (29) 
-4.7071

>  <SCORE.INTER>  (29) 
0.180613

>  <SCORE.INTER.CONST>  (29) 
1

>  <SCORE.INTER.POLAR>  (29) 
-0.359356

>  <SCORE.INTER.REPUL>  (29) 
0

>  <SCORE.INTER.ROT>  (29) 
7

>  <SCORE.INTER.VDW>  (29) 
-10.9976

>  <SCORE.INTER.norm>  (29) 
0.00820967

>  <SCORE.INTRA>  (29) 
9.90766

>  <SCORE.INTRA.DIHEDRAL>  (29) 
7.76515

>  <SCORE.INTRA.DIHEDRAL.0>  (29) 
3.78927

>  <SCORE.INTRA.POLAR>  (29) 
0

>  <SCORE.INTRA.POLAR.0>  (29) 
0

>  <SCORE.INTRA.REPUL>  (29) 
0

>  <SCORE.INTRA.REPUL.0>  (29) 
0

>  <SCORE.INTRA.VDW>  (29) 
6.02509

>  <SCORE.INTRA.VDW.0>  (29) 
1.02728

>  <SCORE.INTRA.norm>  (29) 
0.450348

>  <SCORE.RESTR>  (29) 
1.3509

>  <SCORE.RESTR.CAVITY>  (29) 
1.3509

>  <SCORE.RESTR.norm>  (29) 
0.0614046

>  <SCORE.SYSTEM>  (29) 
-16.1463

>  <SCORE.SYSTEM.CONST>  (29) 
0

>  <SCORE.SYSTEM.DIHEDRAL>  (29) 
5.18882

>  <SCORE.SYSTEM.POLAR>  (29) 
-5.66371

>  <SCORE.SYSTEM.REPUL>  (29) 
0.233243

>  <SCORE.SYSTEM.VDW>  (29) 
-0.650324

>  <SCORE.SYSTEM.norm>  (29) 
-0.733923

>  <SCORE.heavy>  (29) 
22

>  <SCORE.norm>  (29) 
-0.21396

$$$$
denovo_401
     RDKit          3D

 22 23  0  0  0  0  0  0  0  0999 V2000
    8.7062   13.9589   -1.9012 C   0  0  0  0  0  0  0  0  0  0  0  0
    7.5252   13.3679   -1.3755 O   0  0  0  0  0  0  0  0  0  0  0  0
    7.5212   11.9494   -1.5518 C   0  0  0  0  0  0  0  0  0  0  0  0
    6.2792   11.3302   -0.8742 C   0  0  2  0  0  0  0  0  0  0  0  0
    6.2284   11.7620    0.5874 C   0  0  0  0  0  0  0  0  0  0  0  0
    5.1385   12.5132    1.0528 C   0  0  0  0  0  0  0  0  0  0  0  0
    5.0730   12.9212    2.3862 C   0  0  0  0  0  0  0  0  0  0  0  0
    6.0953   12.5850    3.2705 C   0  0  0  0  0  0  0  0  0  0  0  0
    7.1842   11.8408    2.8226 C   0  0  0  0  0  0  0  0  0  0  0  0
    7.2521   11.4319    1.4895 C   0  0  0  0  0  0  0  0  0  0  0  0
    6.2228    9.7880   -1.0192 C   0  0  2  0  0  0  0  0  0  0  0  0
    5.9401    9.2890   -2.4400 C   0  0  0  0  0  0  0  0  0  0  0  0
    5.2773    7.9165   -2.2869 C   0  0  0  0  0  0  0  0  0  0  0  0
    5.0404    7.7082   -0.7887 C   0  0  2  0  0  0  0  0  0  0  0  0
    3.7328    6.9973   -0.3995 C   0  0  0  0  0  0  0  0  0  0  0  0
    3.8133    5.7675    0.5686 C   0  0  0  0  0  0  0  0  0  0  0  0
    4.6694    4.6568   -0.0735 C   0  0  0  0  0  0  0  0  0  0  0  0
    4.5556    6.2623    1.8361 C   0  0  0  0  0  0  0  0  0  0  0  0
    2.4055    5.2146    0.9560 C   0  0  1  0  0  0  0  0  0  0  0  0
    1.2200    5.9390    0.3175 C   0  0  0  0  0  0  0  0  0  0  0  0
    2.2767    3.8400    0.5884 O   0  0  0  0  0  0  0  0  0  0  0  0
    5.0892    9.1335   -0.2226 C   0  0  0  0  0  0  0  0  0  0  0  0
  1  2  1  0
  2  3  1  0
  4  3  1  1
  4  5  1  0
  5  6  2  0
  6  7  1  0
  7  8  2  0
  8  9  1  0
  9 10  2  0
  4 11  1  0
 11 12  1  6
 12 13  1  0
 13 14  1  0
 14 15  1  6
 15 16  1  0
 16 17  1  0
 16 18  1  0
 16 19  1  0
 19 20  1  6
 19 21  1  0
 14 22  1  0
 10  5  1  0
 22 11  1  0
M  END
>  <CHROM.0>  (30) 
-38.56252275,-73.98061077,69.01245648,69.91900821,-60.32439372,67.09941081
-167.91139414,69.19864153

>  <CHROM.1>  (30) 
175.63660689,-54.41663178,118.45510915,-69.78363131,128.67739468,-60.80151194
0.99104258,-67.92719552,5.30159493,9.29265147,0.09136712,-0.49564277,-1.00232879
-2.17794756

>  <Name>  (30) 
denovo_401

>  <RI>  (30) 
-1.15655e+09

>  <Rbt.Current_Directory>  (30) 
/tmp/claude-0/-home-user-Rare-cancers/1af35c7f-7dc4-53ce-91d2-1631a2a10a85/scratchpad/smwork/cross/dock_metad-opened_v2-statematch

>  <Rbt.Executable>  (30) 
rbdock - v25.07-alpha

>  <Rbt.Library>  (30) 
libRbt.so (25.07, Buildalpha)

>  <Rbt.Parameter_File>  (30) 
/tmp/claude-0/-home-user-Rare-cancers/1af35c7f-7dc4-53ce-91d2-1631a2a10a85/scratchpad/rdroot/share/rDock/data/scripts/dock.prm

>  <Rbt.Receptor>  (30) 
rec.prm

>  <SCORE>  (30) 
-3.9185

>  <SCORE.INTER>  (30) 
6.45959

>  <SCORE.INTER.CONST>  (30) 
1

>  <SCORE.INTER.POLAR>  (30) 
0

>  <SCORE.INTER.REPUL>  (30) 
0

>  <SCORE.INTER.ROT>  (30) 
7

>  <SCORE.INTER.VDW>  (30) 
-5.94041

>  <SCORE.INTER.norm>  (30) 
0.293618

>  <SCORE.INTRA>  (30) 
10.1378

>  <SCORE.INTRA.DIHEDRAL>  (30) 
10.3548

>  <SCORE.INTRA.DIHEDRAL.0>  (30) 
3.78927

>  <SCORE.INTRA.POLAR>  (30) 
0

>  <SCORE.INTRA.POLAR.0>  (30) 
0

>  <SCORE.INTRA.REPUL>  (30) 
0

>  <SCORE.INTRA.REPUL.0>  (30) 
0

>  <SCORE.INTRA.VDW>  (30) 
4.96045

>  <SCORE.INTRA.VDW.0>  (30) 
1.02728

>  <SCORE.INTRA.norm>  (30) 
0.460811

>  <SCORE.RESTR>  (30) 
0

>  <SCORE.RESTR.CAVITY>  (30) 
0

>  <SCORE.RESTR.norm>  (30) 
0

>  <SCORE.SYSTEM>  (30) 
-20.5159

>  <SCORE.SYSTEM.CONST>  (30) 
0

>  <SCORE.SYSTEM.DIHEDRAL>  (30) 
5.26171

>  <SCORE.SYSTEM.POLAR>  (30) 
-6.53009

>  <SCORE.SYSTEM.VDW>  (30) 
-0.94448

>  <SCORE.SYSTEM.norm>  (30) 
-0.932542

>  <SCORE.heavy>  (30) 
22

>  <SCORE.norm>  (30) 
-0.178114

$$$$
denovo_401
     RDKit          3D

 22 23  0  0  0  0  0  0  0  0999 V2000
    6.8890   12.6470    3.3845 C   0  0  0  0  0  0  0  0  0  0  0  0
    6.5180   13.3835    2.2267 O   0  0  0  0  0  0  0  0  0  0  0  0
    7.0789   14.6983    2.2351 C   0  0  0  0  0  0  0  0  0  0  0  0
    6.9439   15.3458    0.8395 C   0  0  2  0  0  0  0  0  0  0  0  0
    5.4798   15.6774    0.5717 C   0  0  0  0  0  0  0  0  0  0  0  0
    4.4794   14.7765    0.9670 C   0  0  0  0  0  0  0  0  0  0  0  0
    3.1331   15.0588    0.7293 C   0  0  0  0  0  0  0  0  0  0  0  0
    2.7696   16.2434    0.0933 C   0  0  0  0  0  0  0  0  0  0  0  0
    3.7518   17.1468   -0.3060 C   0  0  0  0  0  0  0  0  0  0  0  0
    5.0988   16.8665   -0.0697 C   0  0  0  0  0  0  0  0  0  0  0  0
    7.5499   14.4723   -0.2884 C   0  0  2  0  0  0  0  0  0  0  0  0
    7.4284   15.0687   -1.6945 C   0  0  0  0  0  0  0  0  0  0  0  0
    7.4326   13.8824   -2.6637 C   0  0  0  0  0  0  0  0  0  0  0  0
    7.3958   12.6148   -1.8058 C   0  0  2  0  0  0  0  0  0  0  0  0
    6.5477   11.4513   -2.3479 C   0  0  0  0  0  0  0  0  0  0  0  0
    6.7049   10.0415   -1.6817 C   0  0  0  0  0  0  0  0  0  0  0  0
    8.1920    9.6327   -1.6772 C   0  0  0  0  0  0  0  0  0  0  0  0
    6.2564   10.2071   -0.2073 C   0  0  0  0  0  0  0  0  0  0  0  0
    5.8411    8.9460   -2.3827 C   0  0  1  0  0  0  0  0  0  0  0  0
    4.3289    9.1603   -2.3109 C   0  0  0  0  0  0  0  0  0  0  0  0
    6.1640    8.8506   -3.7711 O   0  0  0  0  0  0  0  0  0  0  0  0
    6.8577   13.1159   -0.4592 C   0  0  0  0  0  0  0  0  0  0  0  0
  1  2  1  0
  2  3  1  0
  4  3  1  1
  4  5  1  0
  5  6  2  0
  6  7  1  0
  7  8  2  0
  8  9  1  0
  9 10  2  0
  4 11  1  0
 11 12  1  6
 12 13  1  0
 13 14  1  0
 14 15  1  6
 15 16  1  0
 16 17  1  0
 16 18  1  0
 16 19  1  0
 19 20  1  6
 19 21  1  0
 14 22  1  0
 10  5  1  0
 22 11  1  0
M  END
>  <CHROM.0>  (31) 
-38.27403571,-72.93307271,-171.63576113,-175.85087195,-63.31227855,-44.34069016
-168.10044764,70.70943845

>  <CHROM.1>  (31) 
166.63534968,70.63528131,-40.04540271,179.48550096,167.49188090,-53.57427259
-63.67759402,-56.19290069,6.07093895,13.03589835,-0.50099177,-1.86707154
0.88241850,-2.43890833

>  <Name>  (31) 
denovo_401

>  <RI>  (31) 
-1.15655e+09

>  <Rbt.Current_Directory>  (31) 
/tmp/claude-0/-home-user-Rare-cancers/1af35c7f-7dc4-53ce-91d2-1631a2a10a85/scratchpad/smwork/cross/dock_metad-opened_v2-statematch

>  <Rbt.Executable>  (31) 
rbdock - v25.07-alpha

>  <Rbt.Library>  (31) 
libRbt.so (25.07, Buildalpha)

>  <Rbt.Parameter_File>  (31) 
/tmp/claude-0/-home-user-Rare-cancers/1af35c7f-7dc4-53ce-91d2-1631a2a10a85/scratchpad/rdroot/share/rDock/data/scripts/dock.prm

>  <Rbt.Receptor>  (31) 
rec.prm

>  <SCORE>  (31) 
-3.3345

>  <SCORE.INTER>  (31) 
0.403275

>  <SCORE.INTER.CONST>  (31) 
1

>  <SCORE.INTER.POLAR>  (31) 
0

>  <SCORE.INTER.REPUL>  (31) 
0

>  <SCORE.INTER.ROT>  (31) 
7

>  <SCORE.INTER.VDW>  (31) 
-11.9967

>  <SCORE.INTER.norm>  (31) 
0.0183307

>  <SCORE.INTRA>  (31) 
3.59178

>  <SCORE.INTRA.DIHEDRAL>  (31) 
-0.589363

>  <SCORE.INTRA.DIHEDRAL.0>  (31) 
3.78927

>  <SCORE.INTRA.POLAR>  (31) 
0

>  <SCORE.INTRA.POLAR.0>  (31) 
0

>  <SCORE.INTRA.REPUL>  (31) 
0

>  <SCORE.INTRA.REPUL.0>  (31) 
0

>  <SCORE.INTRA.VDW>  (31) 
3.88646

>  <SCORE.INTRA.VDW.0>  (31) 
1.02728

>  <SCORE.INTRA.norm>  (31) 
0.163263

>  <SCORE.RESTR>  (31) 
0

>  <SCORE.RESTR.CAVITY>  (31) 
0

>  <SCORE.RESTR.norm>  (31) 
0

>  <SCORE.SYSTEM>  (31) 
-7.32956

>  <SCORE.SYSTEM.CONST>  (31) 
0

>  <SCORE.SYSTEM.DIHEDRAL>  (31) 
5.80981

>  <SCORE.SYSTEM.POLAR>  (31) 
-3.78703

>  <SCORE.SYSTEM.REPUL>  (31) 
0.631155

>  <SCORE.SYSTEM.VDW>  (31) 
-0.514343

>  <SCORE.SYSTEM.norm>  (31) 
-0.333162

>  <SCORE.heavy>  (31) 
22

>  <SCORE.norm>  (31) 
-0.151568

$$$$
denovo_401
     RDKit          3D

 22 23  0  0  0  0  0  0  0  0999 V2000
    4.1135    9.4303   -4.0992 C   0  0  0  0  0  0  0  0  0  0  0  0
    4.4164    9.1584   -2.7372 O   0  0  0  0  0  0  0  0  0  0  0  0
    5.4575    8.1871   -2.6116 C   0  0  0  0  0  0  0  0  0  0  0  0
    6.0706    8.2410   -1.1952 C   0  0  2  0  0  0  0  0  0  0  0  0
    5.2810    7.3278   -0.2637 C   0  0  0  0  0  0  0  0  0  0  0  0
    3.9994    6.8950   -0.6363 C   0  0  0  0  0  0  0  0  0  0  0  0
    3.2580    6.0610    0.2024 C   0  0  0  0  0  0  0  0  0  0  0  0
    3.7868    5.6500    1.4236 C   0  0  0  0  0  0  0  0  0  0  0  0
    5.0573    6.0726    1.8076 C   0  0  0  0  0  0  0  0  0  0  0  0
    5.8005    6.9069    0.9707 C   0  0  0  0  0  0  0  0  0  0  0  0
    6.1674    9.6841   -0.6377 C   0  0  2  0  0  0  0  0  0  0  0  0
    7.0705    9.8360    0.5907 C   0  0  0  0  0  0  0  0  0  0  0  0
    6.5440   11.0513    1.3604 C   0  0  0  0  0  0  0  0  0  0  0  0
    5.2550   11.4896    0.6600 C   0  0  2  0  0  0  0  0  0  0  0  0
    4.1199   11.9849    1.5727 C   0  0  0  0  0  0  0  0  0  0  0  0
    4.3502   13.2930    2.4046 C   0  0  0  0  0  0  0  0  0  0  0  0
    5.3452   13.0117    3.5489 C   0  0  0  0  0  0  0  0  0  0  0  0
    5.0147   14.3080    1.4400 C   0  0  0  0  0  0  0  0  0  0  0  0
    3.0218   13.8861    2.9716 C   0  0  1  0  0  0  0  0  0  0  0  0
    1.9546   14.2157    1.9274 C   0  0  0  0  0  0  0  0  0  0  0  0
    2.4105   12.9824    3.8938 O   0  0  0  0  0  0  0  0  0  0  0  0
    4.8351   10.2377   -0.1214 C   0  0  0  0  0  0  0  0  0  0  0  0
  1  2  1  0
  2  3  1  0
  4  3  1  6
  4  5  1  0
  5  6  2  0
  6  7  1  0
  7  8  2  0
  8  9  1  0
  9 10  2  0
  4 11  1  0
 11 12  1  1
 12 13  1  0
 13 14  1  0
 14 15  1  1
 15 16  1  0
 16 17  1  0
 16 18  1  0
 16 19  1  0
 19 20  1  6
 19 21  1  0
 14 22  1  0
 10  5  1  0
 22 11  1  0
M  END
>  <CHROM.0>  (32) 
76.05724023,-77.70531129,69.00441287,67.41983236,-62.53800072,-49.34234677
70.48580307,70.57218574

>  <CHROM.1>  (32) 
161.92950727,87.92343692,-17.15694866,-165.50071903,64.67576767,-72.11692108
-57.37961567,170.96375217,4.66031950,10.10338173,0.57311165,-0.73309903,1.36086844
-0.31733871

>  <Name>  (32) 
denovo_401

>  <RI>  (32) 
-1.15655e+09

>  <Rbt.Current_Directory>  (32) 
/tmp/claude-0/-home-user-Rare-cancers/1af35c7f-7dc4-53ce-91d2-1631a2a10a85/scratchpad/smwork/cross/dock_metad-opened_v2-statematch

>  <Rbt.Executable>  (32) 
rbdock - v25.07-alpha

>  <Rbt.Library>  (32) 
libRbt.so (25.07, Buildalpha)

>  <Rbt.Parameter_File>  (32) 
/tmp/claude-0/-home-user-Rare-cancers/1af35c7f-7dc4-53ce-91d2-1631a2a10a85/scratchpad/rdroot/share/rDock/data/scripts/dock.prm

>  <Rbt.Receptor>  (32) 
rec.prm

>  <SCORE>  (32) 
-1.9393

>  <SCORE.INTER>  (32) 
5.13829

>  <SCORE.INTER.CONST>  (32) 
1

>  <SCORE.INTER.POLAR>  (32) 
-0.815965

>  <SCORE.INTER.REPUL>  (32) 
0

>  <SCORE.INTER.ROT>  (32) 
7

>  <SCORE.INTER.VDW>  (32) 
-4.48743

>  <SCORE.INTER.norm>  (32) 
0.233558

>  <SCORE.INTRA>  (32) 
5.25508

>  <SCORE.INTRA.DIHEDRAL>  (32) 
3.3022

>  <SCORE.INTRA.DIHEDRAL.0>  (32) 
3.78927

>  <SCORE.INTRA.POLAR>  (32) 
0

>  <SCORE.INTRA.POLAR.0>  (32) 
0

>  <SCORE.INTRA.REPUL>  (32) 
0

>  <SCORE.INTRA.REPUL.0>  (32) 
0

>  <SCORE.INTRA.VDW>  (32) 
3.60398

>  <SCORE.INTRA.VDW.0>  (32) 
1.02728

>  <SCORE.INTRA.norm>  (32) 
0.238867

>  <SCORE.RESTR>  (32) 
0

>  <SCORE.RESTR.CAVITY>  (32) 
0

>  <SCORE.RESTR.norm>  (32) 
0

>  <SCORE.SYSTEM>  (32) 
-12.3326

>  <SCORE.SYSTEM.CONST>  (32) 
0

>  <SCORE.SYSTEM.DIHEDRAL>  (32) 
5.03803

>  <SCORE.SYSTEM.POLAR>  (32) 
-4.47629

>  <SCORE.SYSTEM.REPUL>  (32) 
0.278045

>  <SCORE.SYSTEM.VDW>  (32) 
-1.0225

>  <SCORE.SYSTEM.norm>  (32) 
-0.560574

>  <SCORE.heavy>  (32) 
22

>  <SCORE.norm>  (32) 
-0.0881481

$$$$
denovo_401
     RDKit          3D

 22 23  0  0  0  0  0  0  0  0999 V2000
    6.9188   11.6024   -4.9984 C   0  0  0  0  0  0  0  0  0  0  0  0
    7.7708   11.5430   -3.8622 O   0  0  0  0  0  0  0  0  0  0  0  0
    7.4874   10.4022   -3.0489 C   0  0  0  0  0  0  0  0  0  0  0  0
    7.7713   10.7204   -1.5645 C   0  0  2  0  0  0  0  0  0  0  0  0
    7.1941    9.6146   -0.6875 C   0  0  0  0  0  0  0  0  0  0  0  0
    7.8733    9.2248    0.4767 C   0  0  0  0  0  0  0  0  0  0  0  0
    7.3643    8.2130    1.2927 C   0  0  0  0  0  0  0  0  0  0  0  0
    6.1717    7.5774    0.9554 C   0  0  0  0  0  0  0  0  0  0  0  0
    5.4869    7.9527   -0.1981 C   0  0  0  0  0  0  0  0  0  0  0  0
    5.9942    8.9641   -1.0158 C   0  0  0  0  0  0  0  0  0  0  0  0
    7.2528   12.1183   -1.1407 C   0  0  2  0  0  0  0  0  0  0  0  0
    8.3509   13.1454   -0.8459 C   0  0  0  0  0  0  0  0  0  0  0  0
    7.7456   14.1460    0.1436 C   0  0  0  0  0  0  0  0  0  0  0  0
    6.3679   13.6016    0.5306 C   0  0  2  0  0  0  0  0  0  0  0  0
    5.9470   13.7975    1.9974 C   0  0  0  0  0  0  0  0  0  0  0  0
    4.5652   13.2199    2.4591 C   0  0  0  0  0  0  0  0  0  0  0  0
    4.2859   11.8928    1.7245 C   0  0  0  0  0  0  0  0  0  0  0  0
    4.7117   12.9020    3.9690 C   0  0  0  0  0  0  0  0  0  0  0  0
    3.3899   14.2234    2.2363 C   0  0  1  0  0  0  0  0  0  0  0  0
    3.2203   14.7236    0.8014 C   0  0  0  0  0  0  0  0  0  0  0  0
    2.1400   13.6372    2.6037 O   0  0  0  0  0  0  0  0  0  0  0  0
    6.4640   12.1126    0.1730 C   0  0  0  0  0  0  0  0  0  0  0  0
  1  2  1  0
  2  3  1  0
  4  3  1  6
  4  5  1  0
  5  6  2  0
  6  7  1  0
  7  8  2  0
  8  9  1  0
  9 10  2  0
  4 11  1  0
 11 12  1  1
 12 13  1  0
 13 14  1  0
 14 15  1  1
 15 16  1  0
 16 17  1  0
 16 18  1  0
 16 19  1  0
 19 20  1  6
 19 21  1  0
 14 22  1  0
 10  5  1  0
 22 11  1  0
M  END
>  <CHROM.0>  (33) 
74.26582416,-72.79145626,72.09150113,-177.12613536,-56.23973173,-178.04722502
-168.05365266,71.04599197

>  <CHROM.1>  (33) 
-148.32603342,168.15357314,144.17157732,-110.47978203,-178.12631798,35.57457709
56.22743576,77.00992779,6.06077137,11.68294269,0.08388416,-0.27257527,1.00335955
-0.34567353

>  <Name>  (33) 
denovo_401

>  <RI>  (33) 
-1.15655e+09

>  <Rbt.Current_Directory>  (33) 
/tmp/claude-0/-home-user-Rare-cancers/1af35c7f-7dc4-53ce-91d2-1631a2a10a85/scratchpad/smwork/cross/dock_metad-opened_v2-statematch

>  <Rbt.Executable>  (33) 
rbdock - v25.07-alpha

>  <Rbt.Library>  (33) 
libRbt.so (25.07, Buildalpha)

>  <Rbt.Parameter_File>  (33) 
/tmp/claude-0/-home-user-Rare-cancers/1af35c7f-7dc4-53ce-91d2-1631a2a10a85/scratchpad/rdroot/share/rDock/data/scripts/dock.prm

>  <Rbt.Receptor>  (33) 
rec.prm

>  <SCORE>  (33) 
-1.7868

>  <SCORE.INTER>  (33) 
-0.531162

>  <SCORE.INTER.CONST>  (33) 
1

>  <SCORE.INTER.POLAR>  (33) 
-0.672552

>  <SCORE.INTER.REPUL>  (33) 
0

>  <SCORE.INTER.ROT>  (33) 
7

>  <SCORE.INTER.VDW>  (33) 
-10.6445

>  <SCORE.INTER.norm>  (33) 
-0.0241437

>  <SCORE.INTRA>  (33) 
14.6992

>  <SCORE.INTRA.DIHEDRAL>  (33) 
11.3411

>  <SCORE.INTRA.DIHEDRAL.0>  (33) 
3.78927

>  <SCORE.INTRA.POLAR>  (33) 
0

>  <SCORE.INTRA.POLAR.0>  (33) 
0

>  <SCORE.INTRA.REPUL>  (33) 
0

>  <SCORE.INTRA.REPUL.0>  (33) 
0

>  <SCORE.INTRA.VDW>  (33) 
9.0286

>  <SCORE.INTRA.VDW.0>  (33) 
1.02728

>  <SCORE.INTRA.norm>  (33) 
0.668144

>  <SCORE.RESTR>  (33) 
0

>  <SCORE.RESTR.CAVITY>  (33) 
0

>  <SCORE.RESTR.norm>  (33) 
0

>  <SCORE.SYSTEM>  (33) 
-15.9548

>  <SCORE.SYSTEM.CONST>  (33) 
0

>  <SCORE.SYSTEM.DIHEDRAL>  (33) 
3.92804

>  <SCORE.SYSTEM.POLAR>  (33) 
-4.70407

>  <SCORE.SYSTEM.VDW>  (33) 
-1.92496

>  <SCORE.SYSTEM.norm>  (33) 
-0.725218

>  <SCORE.heavy>  (33) 
22

>  <SCORE.norm>  (33) 
-0.0812171

$$$$
denovo_401
     RDKit          3D

 22 23  0  0  0  0  0  0  0  0999 V2000
    5.5596   12.7045    3.1328 C   0  0  0  0  0  0  0  0  0  0  0  0
    5.9551   13.0419    1.8099 O   0  0  0  0  0  0  0  0  0  0  0  0
    7.1454   13.8333    1.8003 C   0  0  0  0  0  0  0  0  0  0  0  0
    7.5257   14.2091    0.3514 C   0  0  2  0  0  0  0  0  0  0  0  0
    6.4324   15.0846   -0.2511 C   0  0  0  0  0  0  0  0  0  0  0  0
    6.5885   15.5983   -1.5474 C   0  0  0  0  0  0  0  0  0  0  0  0
    5.6013   16.4041   -2.1173 C   0  0  0  0  0  0  0  0  0  0  0  0
    4.4470   16.7076   -1.3995 C   0  0  0  0  0  0  0  0  0  0  0  0
    4.2786   16.2060   -0.1110 C   0  0  0  0  0  0  0  0  0  0  0  0
    5.2645   15.4002    0.4612 C   0  0  0  0  0  0  0  0  0  0  0  0
    7.8206   12.9701   -0.5321 C   0  0  2  0  0  0  0  0  0  0  0  0
    8.3633   13.2942   -1.9278 C   0  0  0  0  0  0  0  0  0  0  0  0
    7.9645   12.1185   -2.8250 C   0  0  0  0  0  0  0  0  0  0  0  0
    7.0649   11.2095   -1.9833 C   0  0  2  0  0  0  0  0  0  0  0  0
    5.8832   10.5534   -2.7181 C   0  0  0  0  0  0  0  0  0  0  0  0
    5.3567    9.1722   -2.1972 C   0  0  0  0  0  0  0  0  0  0  0  0
    3.8413    9.0614   -2.4617 C   0  0  0  0  0  0  0  0  0  0  0  0
    6.0652    8.0893   -3.0503 C   0  0  0  0  0  0  0  0  0  0  0  0
    5.6633    8.9445   -0.6833 C   0  0  1  0  0  0  0  0  0  0  0  0
    4.9553    9.8996    0.2782 C   0  0  0  0  0  0  0  0  0  0  0  0
    5.2924    7.6254   -0.2789 O   0  0  0  0  0  0  0  0  0  0  0  0
    6.5778   12.1363   -0.8617 C   0  0  0  0  0  0  0  0  0  0  0  0
  1  2  1  0
  2  3  1  0
  4  3  1  1
  4  5  1  0
  5  6  2  0
  6  7  1  0
  7  8  2  0
  8  9  1  0
  9 10  2  0
  4 11  1  0
 11 12  1  6
 12 13  1  0
 13 14  1  0
 14 15  1  6
 15 16  1  0
 16 17  1  0
 16 18  1  0
 16 19  1  0
 19 20  1  1
 19 21  1  0
 14 22  1  0
 10  5  1  0
 22 11  1  0
M  END
>  <CHROM.0>  (34) 
77.11550556,-175.46250759,-46.46176036,-178.66467499,-179.73336117,-53.79599758
-167.69977716,172.74330914

>  <CHROM.1>  (34) 
-178.63874412,63.68914709,177.24622674,-173.04981951,151.45591326,148.62005026
65.15433609,172.90483387,6.05837281,12.34228603,-0.74202796,1.25574370,1.37222643
0.52148296

>  <Name>  (34) 
denovo_401

>  <RI>  (34) 
-1.15655e+09

>  <Rbt.Current_Directory>  (34) 
/tmp/claude-0/-home-user-Rare-cancers/1af35c7f-7dc4-53ce-91d2-1631a2a10a85/scratchpad/smwork/cross/dock_metad-opened_v2-statematch

>  <Rbt.Executable>  (34) 
rbdock - v25.07-alpha

>  <Rbt.Library>  (34) 
libRbt.so (25.07, Buildalpha)

>  <Rbt.Parameter_File>  (34) 
/tmp/claude-0/-home-user-Rare-cancers/1af35c7f-7dc4-53ce-91d2-1631a2a10a85/scratchpad/rdroot/share/rDock/data/scripts/dock.prm

>  <Rbt.Receptor>  (34) 
rec.prm

>  <SCORE>  (34) 
-1.6473

>  <SCORE.INTER>  (34) 
-4.51972

>  <SCORE.INTER.CONST>  (34) 
1

>  <SCORE.INTER.POLAR>  (34) 
0

>  <SCORE.INTER.REPUL>  (34) 
0

>  <SCORE.INTER.ROT>  (34) 
7

>  <SCORE.INTER.VDW>  (34) 
-16.9197

>  <SCORE.INTER.norm>  (34) 
-0.205442

>  <SCORE.INTRA>  (34) 
6.43776

>  <SCORE.INTRA.DIHEDRAL>  (34) 
4.85579

>  <SCORE.INTRA.DIHEDRAL.0>  (34) 
3.78927

>  <SCORE.INTRA.POLAR>  (34) 
0

>  <SCORE.INTRA.POLAR.0>  (34) 
0

>  <SCORE.INTRA.REPUL>  (34) 
0

>  <SCORE.INTRA.REPUL.0>  (34) 
0

>  <SCORE.INTRA.VDW>  (34) 
4.00987

>  <SCORE.INTRA.VDW.0>  (34) 
1.02728

>  <SCORE.INTRA.norm>  (34) 
0.292625

>  <SCORE.RESTR>  (34) 
0

>  <SCORE.RESTR.CAVITY>  (34) 
0

>  <SCORE.RESTR.norm>  (34) 
0

>  <SCORE.SYSTEM>  (34) 
-3.5653

>  <SCORE.SYSTEM.CONST>  (34) 
0

>  <SCORE.SYSTEM.DIHEDRAL>  (34) 
3.5866

>  <SCORE.SYSTEM.POLAR>  (34) 
-2.04531

>  <SCORE.SYSTEM.REPUL>  (34) 
0.798119

>  <SCORE.SYSTEM.VDW>  (34) 
-2.39515

>  <SCORE.SYSTEM.norm>  (34) 
-0.162059

>  <SCORE.heavy>  (34) 
22

>  <SCORE.norm>  (34) 
-0.0748755

$$$$
denovo_401
     RDKit          3D

 22 23  0  0  0  0  0  0  0  0999 V2000
    1.5656   15.3213    0.6475 C   0  0  0  0  0  0  0  0  0  0  0  0
    2.1018   14.2228    1.3730 O   0  0  0  0  0  0  0  0  0  0  0  0
    3.5282   14.1814    1.2903 C   0  0  0  0  0  0  0  0  0  0  0  0
    4.0658   12.9017    1.9675 C   0  0  2  0  0  0  0  0  0  0  0  0
    3.9394   13.0353    3.4812 C   0  0  0  0  0  0  0  0  0  0  0  0
    2.7056   13.3907    4.0471 C   0  0  0  0  0  0  0  0  0  0  0  0
    2.5683   13.5212    5.4301 C   0  0  0  0  0  0  0  0  0  0  0  0
    3.6612   13.2995    6.2646 C   0  0  0  0  0  0  0  0  0  0  0  0
    4.8927   12.9473    5.7171 C   0  0  0  0  0  0  0  0  0  0  0  0
    5.0326   12.8166    4.3343 C   0  0  0  0  0  0  0  0  0  0  0  0
    5.5165   12.5611    1.5406 C   0  0  2  0  0  0  0  0  0  0  0  0
    6.5182   13.7084    1.7068 C   0  0  0  0  0  0  0  0  0  0  0  0
    7.6272   13.4595    0.6798 C   0  0  0  0  0  0  0  0  0  0  0  0
    7.1781   12.2686   -0.1711 C   0  0  2  0  0  0  0  0  0  0  0  0
    7.5207   12.3358   -1.6694 C   0  0  0  0  0  0  0  0  0  0  0  0
    7.2100   11.0851   -2.5613 C   0  0  0  0  0  0  0  0  0  0  0  0
    5.8618   11.2847   -3.2833 C   0  0  0  0  0  0  0  0  0  0  0  0
    8.3211   11.0365   -3.6408 C   0  0  0  0  0  0  0  0  0  0  0  0
    7.1991    9.7536   -1.7459 C   0  0  1  0  0  0  0  0  0  0  0  0
    6.6342    8.5395   -2.4840 C   0  0  0  0  0  0  0  0  0  0  0  0
    8.5198    9.3924   -1.3383 O   0  0  0  0  0  0  0  0  0  0  0  0
    5.6605   12.2284    0.0518 C   0  0  0  0  0  0  0  0  0  0  0  0
  1  2  1  0
  2  3  1  0
  4  3  1  6
  4  5  1  0
  5  6  2  0
  6  7  1  0
  7  8  2  0
  8  9  1  0
  9 10  2  0
  4 11  1  0
 11 12  1  6
 12 13  1  0
 13 14  1  0
 14 15  1  6
 15 16  1  0
 16 17  1  0
 16 18  1  0
 16 19  1  0
 19 20  1  6
 19 21  1  0
 14 22  1  0
 10  5  1  0
 22 11  1  0
M  END
>  <CHROM.0>  (35) 
79.01215467,-75.17581911,-49.54985674,-50.07213389,-176.08353321,67.17865628
-167.93572992,172.27515751

>  <CHROM.1>  (35) 
-174.33696288,-73.02875406,51.96610144,52.76487958,174.14584123,97.42584744
168.31407279,71.47898046,5.38475705,12.39406806,0.86916415,2.23252888,-0.60947820
1.53649456

>  <Name>  (35) 
denovo_401

>  <RI>  (35) 
-1.15655e+09

>  <Rbt.Current_Directory>  (35) 
/tmp/claude-0/-home-user-Rare-cancers/1af35c7f-7dc4-53ce-91d2-1631a2a10a85/scratchpad/smwork/cross/dock_metad-opened_v2-statematch

>  <Rbt.Executable>  (35) 
rbdock - v25.07-alpha

>  <Rbt.Library>  (35) 
libRbt.so (25.07, Buildalpha)

>  <Rbt.Parameter_File>  (35) 
/tmp/claude-0/-home-user-Rare-cancers/1af35c7f-7dc4-53ce-91d2-1631a2a10a85/scratchpad/rdroot/share/rDock/data/scripts/dock.prm

>  <Rbt.Receptor>  (35) 
rec.prm

>  <SCORE>  (35) 
-1.0654

>  <SCORE.INTER>  (35) 
5.73104

>  <SCORE.INTER.CONST>  (35) 
1

>  <SCORE.INTER.POLAR>  (35) 
0

>  <SCORE.INTER.REPUL>  (35) 
0

>  <SCORE.INTER.ROT>  (35) 
7

>  <SCORE.INTER.VDW>  (35) 
-6.66896

>  <SCORE.INTER.norm>  (35) 
0.260502

>  <SCORE.INTRA>  (35) 
4.56202

>  <SCORE.INTRA.DIHEDRAL>  (35) 
3.88325

>  <SCORE.INTRA.DIHEDRAL.0>  (35) 
3.78927

>  <SCORE.INTRA.POLAR>  (35) 
0

>  <SCORE.INTRA.POLAR.0>  (35) 
0

>  <SCORE.INTRA.REPUL>  (35) 
0

>  <SCORE.INTRA.REPUL.0>  (35) 
0

>  <SCORE.INTRA.VDW>  (35) 
2.6204

>  <SCORE.INTRA.VDW.0>  (35) 
1.02728

>  <SCORE.INTRA.norm>  (35) 
0.207365

>  <SCORE.RESTR>  (35) 
0

>  <SCORE.RESTR.CAVITY>  (35) 
0

>  <SCORE.RESTR.norm>  (35) 
0

>  <SCORE.SYSTEM>  (35) 
-11.3585

>  <SCORE.SYSTEM.CONST>  (35) 
0

>  <SCORE.SYSTEM.DIHEDRAL>  (35) 
5.11721

>  <SCORE.SYSTEM.POLAR>  (35) 
-4.14751

>  <SCORE.SYSTEM.REPUL>  (35) 
0.376195

>  <SCORE.SYSTEM.VDW>  (35) 
-1.69651

>  <SCORE.SYSTEM.norm>  (35) 
-0.516294

>  <SCORE.heavy>  (35) 
22

>  <SCORE.norm>  (35) 
-0.0484281

$$$$
denovo_401
     RDKit          3D

 22 23  0  0  0  0  0  0  0  0999 V2000
    8.8952   12.5096   -3.0182 C   0  0  0  0  0  0  0  0  0  0  0  0
    7.6413   12.0556   -2.5263 O   0  0  0  0  0  0  0  0  0  0  0  0
    7.4391   12.4373   -1.1636 C   0  0  0  0  0  0  0  0  0  0  0  0
    6.1841   11.7406   -0.5940 C   0  0  2  0  0  0  0  0  0  0  0  0
    6.0457   12.0731    0.8877 C   0  0  0  0  0  0  0  0  0  0  0  0
    7.1715   12.0088    1.7227 C   0  0  0  0  0  0  0  0  0  0  0  0
    7.0669   12.3065    3.0825 C   0  0  0  0  0  0  0  0  0  0  0  0
    5.8369   12.6708    3.6251 C   0  0  0  0  0  0  0  0  0  0  0  0
    4.7102   12.7376    2.8088 C   0  0  0  0  0  0  0  0  0  0  0  0
    4.8123   12.4400    1.4487 C   0  0  0  0  0  0  0  0  0  0  0  0
    6.1830   10.2104   -0.8413 C   0  0  2  0  0  0  0  0  0  0  0  0
    5.7196    9.7888   -2.2395 C   0  0  0  0  0  0  0  0  0  0  0  0
    5.1548    8.3724   -2.0934 C   0  0  0  0  0  0  0  0  0  0  0  0
    5.1510    8.0537   -0.5959 C   0  0  2  0  0  0  0  0  0  0  0  0
    3.9512    7.2429   -0.0763 C   0  0  0  0  0  0  0  0  0  0  0  0
    4.2321    5.9911    0.8239 C   0  0  0  0  0  0  0  0  0  0  0  0
    4.8039    4.8485   -0.0399 C   0  0  0  0  0  0  0  0  0  0  0  0
    5.3317    6.4188    1.8290 C   0  0  0  0  0  0  0  0  0  0  0  0
    2.9629    5.5083    1.5945 C   0  0  1  0  0  0  0  0  0  0  0  0
    2.5047    6.4181    2.7348 C   0  0  0  0  0  0  0  0  0  0  0  0
    1.8460    5.3822    0.7127 O   0  0  0  0  0  0  0  0  0  0  0  0
    5.2122    9.4396    0.0596 C   0  0  0  0  0  0  0  0  0  0  0  0
  1  2  1  0
  2  3  1  0
  4  3  1  1
  4  5  1  0
  5  6  2  0
  6  7  1  0
  7  8  2  0
  8  9  1  0
  9 10  2  0
  4 11  1  0
 11 12  1  6
 12 13  1  0
 13 14  1  0
 14 15  1  1
 15 16  1  0
 16 17  1  0
 16 18  1  0
 16 19  1  0
 19 20  1  1
 19 21  1  0
 14 22  1  0
 10  5  1  0
 22 11  1  0
M  END
>  <CHROM.0>  (36) 
-40.23391784,-72.48301777,164.10371654,179.24632240,-178.38278534,68.07957850
-67.97306628,170.82951720

>  <CHROM.1>  (36) 
-170.87301264,175.63048156,-45.16979699,-81.19256776,130.98124090,-72.60629694
-71.46942370,74.50020091,5.38108793,9.48988353,0.31701060,-0.46965067,-1.00821897
-2.28589869

>  <Name>  (36) 
denovo_401

>  <RI>  (36) 
-1.15655e+09

>  <Rbt.Current_Directory>  (36) 
/tmp/claude-0/-home-user-Rare-cancers/1af35c7f-7dc4-53ce-91d2-1631a2a10a85/scratchpad/smwork/cross/dock_metad-opened_v2-statematch

>  <Rbt.Executable>  (36) 
rbdock - v25.07-alpha

>  <Rbt.Library>  (36) 
libRbt.so (25.07, Buildalpha)

>  <Rbt.Parameter_File>  (36) 
/tmp/claude-0/-home-user-Rare-cancers/1af35c7f-7dc4-53ce-91d2-1631a2a10a85/scratchpad/rdroot/share/rDock/data/scripts/dock.prm

>  <Rbt.Receptor>  (36) 
rec.prm

>  <SCORE>  (36) 
-1.0648

>  <SCORE.INTER>  (36) 
1.05914

>  <SCORE.INTER.CONST>  (36) 
1

>  <SCORE.INTER.POLAR>  (36) 
0

>  <SCORE.INTER.REPUL>  (36) 
0

>  <SCORE.INTER.ROT>  (36) 
7

>  <SCORE.INTER.VDW>  (36) 
-11.3409

>  <SCORE.INTER.norm>  (36) 
0.0481427

>  <SCORE.INTRA>  (36) 
5.90593

>  <SCORE.INTRA.DIHEDRAL>  (36) 
7.84964

>  <SCORE.INTRA.DIHEDRAL.0>  (36) 
3.78927

>  <SCORE.INTRA.POLAR>  (36) 
0

>  <SCORE.INTRA.POLAR.0>  (36) 
0

>  <SCORE.INTRA.REPUL>  (36) 
0

>  <SCORE.INTRA.REPUL.0>  (36) 
0

>  <SCORE.INTRA.VDW>  (36) 
1.98111

>  <SCORE.INTRA.VDW.0>  (36) 
1.02728

>  <SCORE.INTRA.norm>  (36) 
0.268451

>  <SCORE.RESTR>  (36) 
0

>  <SCORE.RESTR.CAVITY>  (36) 
0

>  <SCORE.RESTR.norm>  (36) 
0

>  <SCORE.SYSTEM>  (36) 
-8.02989

>  <SCORE.SYSTEM.CONST>  (36) 
0

>  <SCORE.SYSTEM.DIHEDRAL>  (36) 
4.81346

>  <SCORE.SYSTEM.POLAR>  (36) 
-3.03553

>  <SCORE.SYSTEM.REPUL>  (36) 
0.071651

>  <SCORE.SYSTEM.VDW>  (36) 
-0.474092

>  <SCORE.SYSTEM.norm>  (36) 
-0.364995

>  <SCORE.heavy>  (36) 
22

>  <SCORE.norm>  (36) 
-0.0484009

$$$$
denovo_401
     RDKit          3D

 22 23  0  0  0  0  0  0  0  0999 V2000
    4.8450    9.4713   -4.5565 C   0  0  0  0  0  0  0  0  0  0  0  0
    5.6710    9.3511   -3.4059 O   0  0  0  0  0  0  0  0  0  0  0  0
    5.2825    8.2431   -2.5906 C   0  0  0  0  0  0  0  0  0  0  0  0
    6.0077    8.3018   -1.2284 C   0  0  2  0  0  0  0  0  0  0  0  0
    5.3325    7.3461   -0.2507 C   0  0  0  0  0  0  0  0  0  0  0  0
    4.0784    6.8012   -0.5652 C   0  0  0  0  0  0  0  0  0  0  0  0
    3.4411    5.9264    0.3165 C   0  0  0  0  0  0  0  0  0  0  0  0
    4.0479    5.5861    1.5231 C   0  0  0  0  0  0  0  0  0  0  0  0
    5.2922    6.1202    1.8497 C   0  0  0  0  0  0  0  0  0  0  0  0
    5.9313    6.9955    0.9697 C   0  0  0  0  0  0  0  0  0  0  0  0
    6.0955    9.7400   -0.6568 C   0  0  2  0  0  0  0  0  0  0  0  0
    7.0820    9.9080    0.5034 C   0  0  0  0  0  0  0  0  0  0  0  0
    6.5725   11.0934    1.3292 C   0  0  0  0  0  0  0  0  0  0  0  0
    5.2203   11.4943    0.7335 C   0  0  2  0  0  0  0  0  0  0  0  0
    4.1400   11.9363    1.7357 C   0  0  0  0  0  0  0  0  0  0  0  0
    4.3803   13.2477    2.5595 C   0  0  0  0  0  0  0  0  0  0  0  0
    3.1981   13.4795    3.5224 C   0  0  0  0  0  0  0  0  0  0  0  0
    5.6456   12.9939    3.4179 C   0  0  0  0  0  0  0  0  0  0  0  0
    4.5946   14.4982    1.6494 C   0  0  1  0  0  0  0  0  0  0  0  0
    5.8673   14.4801    0.8022 C   0  0  0  0  0  0  0  0  0  0  0  0
    3.5094   14.6568    0.7339 O   0  0  0  0  0  0  0  0  0  0  0  0
    4.7871   10.2385   -0.0343 C   0  0  0  0  0  0  0  0  0  0  0  0
  1  2  1  0
  2  3  1  0
  4  3  1  6
  4  5  1  0
  5  6  2  0
  6  7  1  0
  7  8  2  0
  8  9  1  0
  9 10  2  0
  4 11  1  0
 11 12  1  1
 12 13  1  0
 13 14  1  0
 14 15  1  1
 15 16  1  0
 16 17  1  0
 16 18  1  0
 16 19  1  0
 19 20  1  6
 19 21  1  0
 14 22  1  0
 10  5  1  0
 22 11  1  0
M  END
>  <CHROM.0>  (37) 
-39.56152750,62.81967368,64.89675109,69.30392386,-59.62104075,66.93300053
-167.93577697,72.14995083

>  <CHROM.1>  (37) 
-168.98242103,165.52897747,-13.06693933,-165.96863561,65.21665301,-178.49069829
-66.09323505,63.46435444,5.03558438,10.20860684,0.35190809,-1.15848252,1.42300645
-0.00806584

>  <Name>  (37) 
denovo_401

>  <RI>  (37) 
-1.15655e+09

>  <Rbt.Current_Directory>  (37) 
/tmp/claude-0/-home-user-Rare-cancers/1af35c7f-7dc4-53ce-91d2-1631a2a10a85/scratchpad/smwork/cross/dock_metad-opened_v2-statematch

>  <Rbt.Executable>  (37) 
rbdock - v25.07-alpha

>  <Rbt.Library>  (37) 
libRbt.so (25.07, Buildalpha)

>  <Rbt.Parameter_File>  (37) 
/tmp/claude-0/-home-user-Rare-cancers/1af35c7f-7dc4-53ce-91d2-1631a2a10a85/scratchpad/rdroot/share/rDock/data/scripts/dock.prm

>  <Rbt.Receptor>  (37) 
rec.prm

>  <SCORE>  (37) 
-0.6391

>  <SCORE.INTER>  (37) 
9.47927

>  <SCORE.INTER.CONST>  (37) 
1

>  <SCORE.INTER.POLAR>  (37) 
0

>  <SCORE.INTER.REPUL>  (37) 
0

>  <SCORE.INTER.ROT>  (37) 
7

>  <SCORE.INTER.VDW>  (37) 
-2.92073

>  <SCORE.INTER.norm>  (37) 
0.430876

>  <SCORE.INTRA>  (37) 
3.98008

>  <SCORE.INTRA.DIHEDRAL>  (37) 
-0.299621

>  <SCORE.INTRA.DIHEDRAL.0>  (37) 
3.78927

>  <SCORE.INTRA.POLAR>  (37) 
0

>  <SCORE.INTRA.POLAR.0>  (37) 
0

>  <SCORE.INTRA.REPUL>  (37) 
0

>  <SCORE.INTRA.REPUL.0>  (37) 
0

>  <SCORE.INTRA.VDW>  (37) 
4.12989

>  <SCORE.INTRA.VDW.0>  (37) 
1.02728

>  <SCORE.INTRA.norm>  (37) 
0.180913

>  <SCORE.RESTR>  (37) 
0

>  <SCORE.RESTR.CAVITY>  (37) 
0

>  <SCORE.RESTR.norm>  (37) 
0

>  <SCORE.SYSTEM>  (37) 
-14.0984

>  <SCORE.SYSTEM.CONST>  (37) 
0

>  <SCORE.SYSTEM.DIHEDRAL>  (37) 
4.16354

>  <SCORE.SYSTEM.POLAR>  (37) 
-5.45077

>  <SCORE.SYSTEM.REPUL>  (37) 
0.47549

>  <SCORE.SYSTEM.VDW>  (37) 
-0.0250056

>  <SCORE.SYSTEM.norm>  (37) 
-0.640837

>  <SCORE.heavy>  (37) 
22

>  <SCORE.norm>  (37) 
-0.0290483

$$$$
denovo_401
     RDKit          3D

 22 23  0  0  0  0  0  0  0  0999 V2000
    5.4561   12.6855    3.6103 C   0  0  0  0  0  0  0  0  0  0  0  0
    5.9990   13.9420    3.2273 O   0  0  0  0  0  0  0  0  0  0  0  0
    7.1412   13.7880    2.3817 C   0  0  0  0  0  0  0  0  0  0  0  0
    6.6978   13.4623    0.9387 C   0  0  2  0  0  0  0  0  0  0  0  0
    5.6611   14.4830    0.4821 C   0  0  0  0  0  0  0  0  0  0  0  0
    4.3344   14.3723    0.9253 C   0  0  0  0  0  0  0  0  0  0  0  0
    3.3686   15.2941    0.5176 C   0  0  0  0  0  0  0  0  0  0  0  0
    3.7156   16.3368   -0.3383 C   0  0  0  0  0  0  0  0  0  0  0  0
    5.0284   16.4587   -0.7875 C   0  0  0  0  0  0  0  0  0  0  0  0
    5.9959   15.5379   -0.3814 C   0  0  0  0  0  0  0  0  0  0  0  0
    6.1797   12.0096    0.7836 C   0  0  2  0  0  0  0  0  0  0  0  0
    6.9915   10.9564    1.5449 C   0  0  0  0  0  0  0  0  0  0  0  0
    6.7979    9.6386    0.7882 C   0  0  0  0  0  0  0  0  0  0  0  0
    6.0123    9.9736   -0.4826 C   0  0  2  0  0  0  0  0  0  0  0  0
    6.4105    9.2005   -1.7517 C   0  0  0  0  0  0  0  0  0  0  0  0
    5.2713    8.6541   -2.6790 C   0  0  0  0  0  0  0  0  0  0  0  0
    4.7503    9.7888   -3.5845 C   0  0  0  0  0  0  0  0  0  0  0  0
    5.9296    7.5873   -3.5905 C   0  0  0  0  0  0  0  0  0  0  0  0
    4.0953    8.0164   -1.8740 C   0  0  1  0  0  0  0  0  0  0  0  0
    4.5112    7.1441   -0.6891 C   0  0  0  0  0  0  0  0  0  0  0  0
    3.2330    9.0241   -1.3430 O   0  0  0  0  0  0  0  0  0  0  0  0
    6.2438   11.4808   -0.6531 C   0  0  0  0  0  0  0  0  0  0  0  0
  1  2  1  0
  2  3  1  0
  4  3  1  1
  4  5  1  0
  5  6  2  0
  6  7  1  0
  7  8  2  0
  8  9  1  0
  9 10  2  0
  4 11  1  0
 11 12  1  1
 12 13  1  0
 13 14  1  0
 14 15  1  6
 15 16  1  0
 16 17  1  0
 16 18  1  0
 16 19  1  0
 19 20  1  1
 19 21  1  0
 14 22  1  0
 10  5  1  0
 22 11  1  0
M  END
>  <CHROM.0>  (38) 
-39.80492017,-75.57239623,69.64538530,-57.82417494,-176.67708236,68.78709784
-71.22027390,67.58882178

>  <CHROM.1>  (38) 
78.60593388,51.23733254,-77.84776946,-40.93537740,137.05265991,80.78403062
-41.80190401,-67.31157047,5.43796169,11.71861537,-0.12336001,-1.49778682
1.10374942,-2.74933469

>  <Name>  (38) 
denovo_401

>  <RI>  (38) 
-1.15655e+09

>  <Rbt.Current_Directory>  (38) 
/tmp/claude-0/-home-user-Rare-cancers/1af35c7f-7dc4-53ce-91d2-1631a2a10a85/scratchpad/smwork/cross/dock_metad-opened_v2-statematch

>  <Rbt.Executable>  (38) 
rbdock - v25.07-alpha

>  <Rbt.Library>  (38) 
libRbt.so (25.07, Buildalpha)

>  <Rbt.Parameter_File>  (38) 
/tmp/claude-0/-home-user-Rare-cancers/1af35c7f-7dc4-53ce-91d2-1631a2a10a85/scratchpad/rdroot/share/rDock/data/scripts/dock.prm

>  <Rbt.Receptor>  (38) 
rec.prm

>  <SCORE>  (38) 
-0.4131

>  <SCORE.INTER>  (38) 
2.11665

>  <SCORE.INTER.CONST>  (38) 
1

>  <SCORE.INTER.POLAR>  (38) 
-0.03013

>  <SCORE.INTER.REPUL>  (38) 
0

>  <SCORE.INTER.ROT>  (38) 
7

>  <SCORE.INTER.VDW>  (38) 
-10.1809

>  <SCORE.INTER.norm>  (38) 
0.0962113

>  <SCORE.INTRA>  (38) 
8.11877

>  <SCORE.INTRA.DIHEDRAL>  (38) 
8.48433

>  <SCORE.INTRA.DIHEDRAL.0>  (38) 
3.78927

>  <SCORE.INTRA.POLAR>  (38) 
0

>  <SCORE.INTRA.POLAR.0>  (38) 
0

>  <SCORE.INTRA.REPUL>  (38) 
0

>  <SCORE.INTRA.REPUL.0>  (38) 
0

>  <SCORE.INTRA.VDW>  (38) 
3.8766

>  <SCORE.INTRA.VDW.0>  (38) 
1.02728

>  <SCORE.INTRA.norm>  (38) 
0.369035

>  <SCORE.RESTR>  (38) 
0

>  <SCORE.RESTR.CAVITY>  (38) 
0

>  <SCORE.RESTR.norm>  (38) 
0

>  <SCORE.SYSTEM>  (38) 
-10.6485

>  <SCORE.SYSTEM.CONST>  (38) 
0

>  <SCORE.SYSTEM.DIHEDRAL>  (38) 
4.831

>  <SCORE.SYSTEM.POLAR>  (38) 
-4.47837

>  <SCORE.SYSTEM.REPUL>  (38) 
0.359877

>  <SCORE.SYSTEM.VDW>  (38) 
0.363104

>  <SCORE.SYSTEM.norm>  (38) 
-0.484021

>  <SCORE.heavy>  (38) 
22

>  <SCORE.norm>  (38) 
-0.0187752

$$$$
denovo_401
     RDKit          3D

 22 23  0  0  0  0  0  0  0  0999 V2000
    4.3902   12.8528    4.1570 C   0  0  0  0  0  0  0  0  0  0  0  0
    5.6603   12.3434    3.7727 O   0  0  0  0  0  0  0  0  0  0  0  0
    6.3154   13.2067    2.8406 C   0  0  0  0  0  0  0  0  0  0  0  0
    5.5498   13.2246    1.4995 C   0  0  2  0  0  0  0  0  0  0  0  0
    5.8487   11.9451    0.7257 C   0  0  0  0  0  0  0  0  0  0  0  0
    6.9779   11.8826   -0.1048 C   0  0  0  0  0  0  0  0  0  0  0  0
    7.2689   10.7222   -0.8242 C   0  0  0  0  0  0  0  0  0  0  0  0
    6.4354    9.6108   -0.7239 C   0  0  0  0  0  0  0  0  0  0  0  0
    5.3100    9.6585    0.0955 C   0  0  0  0  0  0  0  0  0  0  0  0
    5.0168   10.8179    0.8158 C   0  0  0  0  0  0  0  0  0  0  0  0
    5.8489   14.4892    0.6546 C   0  0  2  0  0  0  0  0  0  0  0  0
    6.5990   15.5959    1.4031 C   0  0  0  0  0  0  0  0  0  0  0  0
    6.2207   16.9103    0.7135 C   0  0  0  0  0  0  0  0  0  0  0  0
    5.1404   16.5703   -0.3168 C   0  0  2  0  0  0  0  0  0  0  0  0
    4.0136   17.6039   -0.4867 C   0  0  0  0  0  0  0  0  0  0  0  0
    3.2760   17.6812   -1.8673 C   0  0  0  0  0  0  0  0  0  0  0  0
    3.4590   19.0867   -2.4754 C   0  0  0  0  0  0  0  0  0  0  0  0
    3.9906   16.6678   -2.7972 C   0  0  0  0  0  0  0  0  0  0  0  0
    1.7589   17.3284   -1.7586 C   0  0  1  0  0  0  0  0  0  0  0  0
    1.4422   16.0196   -1.0342 C   0  0  0  0  0  0  0  0  0  0  0  0
    1.0442   18.3512   -1.0628 O   0  0  0  0  0  0  0  0  0  0  0  0
    4.5923   15.2253    0.1780 C   0  0  0  0  0  0  0  0  0  0  0  0
  1  2  1  0
  2  3  1  0
  4  3  1  1
  4  5  1  0
  5  6  2  0
  6  7  1  0
  7  8  2  0
  8  9  1  0
  9 10  2  0
  4 11  1  0
 11 12  1  1
 12 13  1  0
 13 14  1  0
 14 15  1  1
 15 16  1  0
 16 17  1  0
 16 18  1  0
 16 19  1  0
 19 20  1  1
 19 21  1  0
 14 22  1  0
 10  5  1  0
 22 11  1  0
M  END
>  <CHROM.0>  (39) 
163.49505608,63.75199437,67.38984724,70.14639861,69.75166331,69.06969760
68.76841912,68.06492435

>  <CHROM.1>  (39) 
-67.03894593,-76.82443231,-86.43870197,-11.78336743,153.10439668,-119.57643361
-50.85867017,-55.66687192,4.75929921,14.54001538,0.17637873,-0.11797741,-1.13942722
1.03917748

>  <Name>  (39) 
denovo_401

>  <RI>  (39) 
-1.15655e+09

>  <Rbt.Current_Directory>  (39) 
/tmp/claude-0/-home-user-Rare-cancers/1af35c7f-7dc4-53ce-91d2-1631a2a10a85/scratchpad/smwork/cross/dock_metad-opened_v2-statematch

>  <Rbt.Executable>  (39) 
rbdock - v25.07-alpha

>  <Rbt.Library>  (39) 
libRbt.so (25.07, Buildalpha)

>  <Rbt.Parameter_File>  (39) 
/tmp/claude-0/-home-user-Rare-cancers/1af35c7f-7dc4-53ce-91d2-1631a2a10a85/scratchpad/rdroot/share/rDock/data/scripts/dock.prm

>  <Rbt.Receptor>  (39) 
rec.prm

>  <SCORE>  (39) 
0.1859

>  <SCORE.INTER>  (39) 
-3.19868

>  <SCORE.INTER.CONST>  (39) 
1

>  <SCORE.INTER.POLAR>  (39) 
0

>  <SCORE.INTER.REPUL>  (39) 
0

>  <SCORE.INTER.ROT>  (39) 
7

>  <SCORE.INTER.VDW>  (39) 
-15.5987

>  <SCORE.INTER.norm>  (39) 
-0.145395

>  <SCORE.INTRA>  (39) 
13.5776

>  <SCORE.INTRA.DIHEDRAL>  (39) 
13.5633

>  <SCORE.INTRA.DIHEDRAL.0>  (39) 
3.78927

>  <SCORE.INTRA.POLAR>  (39) 
0

>  <SCORE.INTRA.POLAR.0>  (39) 
0

>  <SCORE.INTRA.REPUL>  (39) 
0

>  <SCORE.INTRA.REPUL.0>  (39) 
0

>  <SCORE.INTRA.VDW>  (39) 
6.79596

>  <SCORE.INTRA.VDW.0>  (39) 
1.02728

>  <SCORE.INTRA.norm>  (39) 
0.617163

>  <SCORE.RESTR>  (39) 
0.550933

>  <SCORE.RESTR.CAVITY>  (39) 
0.550933

>  <SCORE.RESTR.norm>  (39) 
0.0250424

>  <SCORE.SYSTEM>  (39) 
-10.7439

>  <SCORE.SYSTEM.CONST>  (39) 
0

>  <SCORE.SYSTEM.DIHEDRAL>  (39) 
3.72779

>  <SCORE.SYSTEM.POLAR>  (39) 
-4.23534

>  <SCORE.SYSTEM.REPUL>  (39) 
0.586285

>  <SCORE.SYSTEM.VDW>  (39) 
-1.13906

>  <SCORE.SYSTEM.norm>  (39) 
-0.488359

>  <SCORE.heavy>  (39) 
22

>  <SCORE.norm>  (39) 
0.0084517

$$$$
denovo_401
     RDKit          3D

 22 23  0  0  0  0  0  0  0  0999 V2000
    4.5270   14.2989   -5.3938 C   0  0  0  0  0  0  0  0  0  0  0  0
    5.5542   13.6956   -4.6182 O   0  0  0  0  0  0  0  0  0  0  0  0
    5.9000   12.4010   -5.1157 C   0  0  0  0  0  0  0  0  0  0  0  0
    6.8429   11.6824   -4.1259 C   0  0  2  0  0  0  0  0  0  0  0  0
    6.1427   10.4530   -3.5573 C   0  0  0  0  0  0  0  0  0  0  0  0
    4.7683   10.2728   -3.7749 C   0  0  0  0  0  0  0  0  0  0  0  0
    4.1068    9.1560   -3.2612 C   0  0  0  0  0  0  0  0  0  0  0  0
    4.8093    8.2064   -2.5232 C   0  0  0  0  0  0  0  0  0  0  0  0
    6.1738    8.3724   -2.2978 C   0  0  0  0  0  0  0  0  0  0  0  0
    6.8374    9.4886   -2.8103 C   0  0  0  0  0  0  0  0  0  0  0  0
    7.3609   12.6180   -3.0039 C   0  0  2  0  0  0  0  0  0  0  0  0
    8.8805   12.6020   -2.8084 C   0  0  0  0  0  0  0  0  0  0  0  0
    9.1275   12.9923   -1.3479 C   0  0  0  0  0  0  0  0  0  0  0  0
    7.7537   13.0737   -0.6770 C   0  0  2  0  0  0  0  0  0  0  0  0
    7.6746   12.5680    0.7738 C   0  0  0  0  0  0  0  0  0  0  0  0
    6.4486   13.0024    1.6481 C   0  0  0  0  0  0  0  0  0  0  0  0
    5.2113   12.1686    1.2574 C   0  0  0  0  0  0  0  0  0  0  0  0
    6.8137   12.6479    3.1121 C   0  0  0  0  0  0  0  0  0  0  0  0
    6.1367   14.5277    1.5299 C   0  0  1  0  0  0  0  0  0  0  0  0
    7.3448   15.4548    1.6677 C   0  0  0  0  0  0  0  0  0  0  0  0
    5.5435   14.8323    0.2664 O   0  0  0  0  0  0  0  0  0  0  0  0
    6.8581   12.2434   -1.6057 C   0  0  0  0  0  0  0  0  0  0  0  0
  1  2  1  0
  2  3  1  0
  4  3  1  6
  4  5  1  0
  5  6  2  0
  6  7  1  0
  7  8  2  0
  8  9  1  0
  9 10  2  0
  4 11  1  0
 11 12  1  1
 12 13  1  0
 13 14  1  0
 14 15  1  1
 15 16  1  0
 16 17  1  0
 16 18  1  0
 16 19  1  0
 19 20  1  6
 19 21  1  0
 14 22  1  0
 10  5  1  0
 22 11  1  0
M  END
>  <CHROM.0>  (40) 
77.70654681,63.56785795,-42.64289462,-176.49445301,-178.20237461,-45.65362903
-166.10537895,71.74911807

>  <CHROM.1>  (40) 
-170.74455885,115.00564907,-11.24650406,-129.28561109,162.11087754,77.47062360
-47.43883664,73.70289443,6.38889997,12.22517508,-1.63233869,-2.63390564,1.34665444
2.12166449

>  <Name>  (40) 
denovo_401

>  <RI>  (40) 
-1.15655e+09

>  <Rbt.Current_Directory>  (40) 
/tmp/claude-0/-home-user-Rare-cancers/1af35c7f-7dc4-53ce-91d2-1631a2a10a85/scratchpad/smwork/cross/dock_metad-opened_v2-statematch

>  <Rbt.Executable>  (40) 
rbdock - v25.07-alpha

>  <Rbt.Library>  (40) 
libRbt.so (25.07, Buildalpha)

>  <Rbt.Parameter_File>  (40) 
/tmp/claude-0/-home-user-Rare-cancers/1af35c7f-7dc4-53ce-91d2-1631a2a10a85/scratchpad/rdroot/share/rDock/data/scripts/dock.prm

>  <Rbt.Receptor>  (40) 
rec.prm

>  <SCORE>  (40) 
2.3756

>  <SCORE.INTER>  (40) 
-4.90204

>  <SCORE.INTER.CONST>  (40) 
1

>  <SCORE.INTER.POLAR>  (40) 
0

>  <SCORE.INTER.REPUL>  (40) 
0

>  <SCORE.INTER.ROT>  (40) 
7

>  <SCORE.INTER.VDW>  (40) 
-17.302

>  <SCORE.INTER.norm>  (40) 
-0.22282

>  <SCORE.INTRA>  (40) 
9.11765

>  <SCORE.INTRA.DIHEDRAL>  (40) 
11.9397

>  <SCORE.INTRA.DIHEDRAL.0>  (40) 
3.78927

>  <SCORE.INTRA.POLAR>  (40) 
0

>  <SCORE.INTRA.POLAR.0>  (40) 
0

>  <SCORE.INTRA.REPUL>  (40) 
0

>  <SCORE.INTRA.REPUL.0>  (40) 
0

>  <SCORE.INTRA.VDW>  (40) 
3.1478

>  <SCORE.INTRA.VDW.0>  (40) 
1.02728

>  <SCORE.INTRA.norm>  (40) 
0.414439

>  <SCORE.RESTR>  (40) 
0

>  <SCORE.RESTR.CAVITY>  (40) 
0

>  <SCORE.RESTR.norm>  (40) 
0

>  <SCORE.SYSTEM>  (40) 
-1.84007

>  <SCORE.SYSTEM.CONST>  (40) 
0

>  <SCORE.SYSTEM.DIHEDRAL>  (40) 
5.59552

>  <SCORE.SYSTEM.POLAR>  (40) 
-2.6565

>  <SCORE.SYSTEM.REPUL>  (40) 
1.07152

>  <SCORE.SYSTEM.VDW>  (40) 
-0.963342

>  <SCORE.SYSTEM.norm>  (40) 
-0.0836395

>  <SCORE.heavy>  (40) 
22

>  <SCORE.norm>  (40) 
0.10798

$$$$
denovo_401
     RDKit          3D

 22 23  0  0  0  0  0  0  0  0999 V2000
    7.2533   11.6939   -5.8958 C   0  0  0  0  0  0  0  0  0  0  0  0
    7.0608   11.0389   -4.6491 O   0  0  0  0  0  0  0  0  0  0  0  0
    5.8325   11.4300   -4.0313 C   0  0  0  0  0  0  0  0  0  0  0  0
    5.9394   11.2949   -2.4966 C   0  0  2  0  0  0  0  0  0  0  0  0
    7.0950   12.1508   -1.9896 C   0  0  0  0  0  0  0  0  0  0  0  0
    8.1908   12.4064   -2.8278 C   0  0  0  0  0  0  0  0  0  0  0  0
    9.2607   13.1851   -2.3831 C   0  0  0  0  0  0  0  0  0  0  0  0
    9.2498   13.7170   -1.0959 C   0  0  0  0  0  0  0  0  0  0  0  0
    8.1694   13.4707   -0.2519 C   0  0  0  0  0  0  0  0  0  0  0  0
    7.0985   12.6920   -0.6943 C   0  0  0  0  0  0  0  0  0  0  0  0
    6.0691    9.8220   -2.0314 C   0  0  2  0  0  0  0  0  0  0  0  0
    5.5905    8.7843   -3.0522 C   0  0  0  0  0  0  0  0  0  0  0  0
    5.1647    7.5547   -2.2439 C   0  0  0  0  0  0  0  0  0  0  0  0
    5.2506    7.9490   -0.7670 C   0  0  2  0  0  0  0  0  0  0  0  0
    4.1524    7.3865    0.1518 C   0  0  0  0  0  0  0  0  0  0  0  0
    4.4391    6.0542    0.9258 C   0  0  0  0  0  0  0  0  0  0  0  0
    4.8031    4.9399   -0.0765 C   0  0  0  0  0  0  0  0  0  0  0  0
    5.6867    6.3243    1.8050 C   0  0  0  0  0  0  0  0  0  0  0  0
    3.2403    5.6101    1.8221 C   0  0  1  0  0  0  0  0  0  0  0  0
    3.1008    6.3609    3.1467 C   0  0  0  0  0  0  0  0  0  0  0  0
    1.9985    5.7790    1.1362 O   0  0  0  0  0  0  0  0  0  0  0  0
    5.2103    9.4823   -0.8086 C   0  0  0  0  0  0  0  0  0  0  0  0
  1  2  1  0
  2  3  1  0
  4  3  1  6
  4  5  1  0
  5  6  2  0
  6  7  1  0
  7  8  2  0
  8  9  1  0
  9 10  2  0
  4 11  1  0
 11 12  1  6
 12 13  1  0
 13 14  1  0
 14 15  1  1
 15 16  1  0
 16 17  1  0
 16 18  1  0
 16 19  1  0
 19 20  1  1
 19 21  1  0
 14 22  1  0
 10  5  1  0
 22 11  1  0
M  END
>  <CHROM.0>  (41) 
-35.47801885,-71.14099870,71.20428865,65.40065686,-59.43570057,67.49690067
-167.69026059,70.43647123

>  <CHROM.1>  (41) 
-152.69403757,57.93783149,-28.29841165,-20.25118693,94.19056179,-56.91848063
-78.18219029,68.81961344,5.83340994,9.40527850,-1.19418741,0.53116844,-0.99944757
-1.53179939

>  <Name>  (41) 
denovo_401

>  <RI>  (41) 
-1.15655e+09

>  <Rbt.Current_Directory>  (41) 
/tmp/claude-0/-home-user-Rare-cancers/1af35c7f-7dc4-53ce-91d2-1631a2a10a85/scratchpad/smwork/cross/dock_metad-opened_v2-statematch

>  <Rbt.Executable>  (41) 
rbdock - v25.07-alpha

>  <Rbt.Library>  (41) 
libRbt.so (25.07, Buildalpha)

>  <Rbt.Parameter_File>  (41) 
/tmp/claude-0/-home-user-Rare-cancers/1af35c7f-7dc4-53ce-91d2-1631a2a10a85/scratchpad/rdroot/share/rDock/data/scripts/dock.prm

>  <Rbt.Receptor>  (41) 
rec.prm

>  <SCORE>  (41) 
2.7935

>  <SCORE.INTER>  (41) 
11.7672

>  <SCORE.INTER.CONST>  (41) 
1

>  <SCORE.INTER.POLAR>  (41) 
-0.343597

>  <SCORE.INTER.REPUL>  (41) 
0

>  <SCORE.INTER.ROT>  (41) 
7

>  <SCORE.INTER.VDW>  (41) 
0.535435

>  <SCORE.INTER.norm>  (41) 
0.534873

>  <SCORE.INTRA>  (41) 
11.4586

>  <SCORE.INTRA.DIHEDRAL>  (41) 
10.5207

>  <SCORE.INTRA.DIHEDRAL.0>  (41) 
3.78927

>  <SCORE.INTRA.POLAR>  (41) 
0

>  <SCORE.INTRA.POLAR.0>  (41) 
0

>  <SCORE.INTRA.REPUL>  (41) 
0

>  <SCORE.INTRA.REPUL.0>  (41) 
0

>  <SCORE.INTRA.VDW>  (41) 
6.19823

>  <SCORE.INTRA.VDW.0>  (41) 
1.02728

>  <SCORE.INTRA.norm>  (41) 
0.520845

>  <SCORE.RESTR>  (41) 
0

>  <SCORE.RESTR.CAVITY>  (41) 
0

>  <SCORE.RESTR.norm>  (41) 
0

>  <SCORE.SYSTEM>  (41) 
-20.4323

>  <SCORE.SYSTEM.CONST>  (41) 
0

>  <SCORE.SYSTEM.DIHEDRAL>  (41) 
5.51183

>  <SCORE.SYSTEM.POLAR>  (41) 
-6.5808

>  <SCORE.SYSTEM.VDW>  (41) 
-0.813471

>  <SCORE.SYSTEM.norm>  (41) 
-0.92874

>  <SCORE.heavy>  (41) 
22

>  <SCORE.norm>  (41) 
0.126978

$$$$
denovo_401
     RDKit          3D

 22 23  0  0  0  0  0  0  0  0999 V2000
    6.5869   14.6446    1.9300 C   0  0  0  0  0  0  0  0  0  0  0  0
    6.9129   13.2802    1.7006 O   0  0  0  0  0  0  0  0  0  0  0  0
    6.6049   12.8814    0.3629 C   0  0  0  0  0  0  0  0  0  0  0  0
    7.3412   11.5697    0.0133 C   0  0  2  0  0  0  0  0  0  0  0  0
    7.3515   11.3794   -1.4995 C   0  0  0  0  0  0  0  0  0  0  0  0
    6.1466   11.1429   -2.1786 C   0  0  0  0  0  0  0  0  0  0  0  0
    6.1333   10.9632   -3.5629 C   0  0  0  0  0  0  0  0  0  0  0  0
    7.3228   11.0163   -4.2856 C   0  0  0  0  0  0  0  0  0  0  0  0
    8.5268   11.2489   -3.6249 C   0  0  0  0  0  0  0  0  0  0  0  0
    8.5427   11.4286   -2.2406 C   0  0  0  0  0  0  0  0  0  0  0  0
    6.7495   10.3366    0.7428 C   0  0  2  0  0  0  0  0  0  0  0  0
    7.6769    9.1180    0.7943 C   0  0  0  0  0  0  0  0  0  0  0  0
    6.7654    7.8918    0.9048 C   0  0  0  0  0  0  0  0  0  0  0  0
    5.3283    8.3985    0.7564 C   0  0  2  0  0  0  0  0  0  0  0  0
    4.3656    7.4920   -0.0300 C   0  0  0  0  0  0  0  0  0  0  0  0
    3.9565    6.1164    0.5995 C   0  0  0  0  0  0  0  0  0  0  0  0
    4.8308    4.9933    0.0052 C   0  0  0  0  0  0  0  0  0  0  0  0
    4.2824    6.2182    2.1114 C   0  0  0  0  0  0  0  0  0  0  0  0
    2.4425    5.7910    0.4004 C   0  0  1  0  0  0  0  0  0  0  0  0
    2.0487    4.3343    0.6474 C   0  0  0  0  0  0  0  0  0  0  0  0
    1.6309    6.5764    1.2752 O   0  0  0  0  0  0  0  0  0  0  0  0
    5.5031    9.7573    0.0654 C   0  0  0  0  0  0  0  0  0  0  0  0
  1  2  1  0
  2  3  1  0
  4  3  1  6
  4  5  1  0
  5  6  2  0
  6  7  1  0
  7  8  2  0
  8  9  1  0
  9 10  2  0
  4 11  1  0
 11 12  1  6
 12 13  1  0
 13 14  1  0
 14 15  1  6
 15 16  1  0
 16 17  1  0
 16 18  1  0
 16 19  1  0
 19 20  1  1
 19 21  1  0
 14 22  1  0
 10  5  1  0
 22 11  1  0
M  END
>  <CHROM.0>  (42) 
-41.90370702,-73.57968802,71.68137057,67.95824407,69.00463481,67.30986584
-170.93395742,70.52524519

>  <CHROM.1>  (42) 
162.90505485,-163.12787534,-66.83132255,-161.57451402,68.09873521,-97.73062051
164.45011317,173.91305460,5.70090666,9.34673320,-0.14499769,0.29981191,0.99268627
0.94681547

>  <Name>  (42) 
denovo_401

>  <RI>  (42) 
-1.15655e+09

>  <Rbt.Current_Directory>  (42) 
/tmp/claude-0/-home-user-Rare-cancers/1af35c7f-7dc4-53ce-91d2-1631a2a10a85/scratchpad/smwork/cross/dock_metad-opened_v2-statematch

>  <Rbt.Executable>  (42) 
rbdock - v25.07-alpha

>  <Rbt.Library>  (42) 
libRbt.so (25.07, Buildalpha)

>  <Rbt.Parameter_File>  (42) 
/tmp/claude-0/-home-user-Rare-cancers/1af35c7f-7dc4-53ce-91d2-1631a2a10a85/scratchpad/rdroot/share/rDock/data/scripts/dock.prm

>  <Rbt.Receptor>  (42) 
rec.prm

>  <SCORE>  (42) 
4.6444

>  <SCORE.INTER>  (42) 
13.6631

>  <SCORE.INTER.CONST>  (42) 
1

>  <SCORE.INTER.POLAR>  (42) 
-0.525134

>  <SCORE.INTER.REPUL>  (42) 
0

>  <SCORE.INTER.ROT>  (42) 
7

>  <SCORE.INTER.VDW>  (42) 
3.04854

>  <SCORE.INTER.norm>  (42) 
0.621049

>  <SCORE.INTRA>  (42) 
12.0029

>  <SCORE.INTRA.DIHEDRAL>  (42) 
7.577

>  <SCORE.INTRA.DIHEDRAL.0>  (42) 
3.78927

>  <SCORE.INTRA.POLAR>  (42) 
0

>  <SCORE.INTRA.POLAR.0>  (42) 
0

>  <SCORE.INTRA.REPUL>  (42) 
0

>  <SCORE.INTRA.REPUL.0>  (42) 
0

>  <SCORE.INTRA.VDW>  (42) 
8.2144

>  <SCORE.INTRA.VDW.0>  (42) 
1.02728

>  <SCORE.INTRA.norm>  (42) 
0.545586

>  <SCORE.RESTR>  (42) 
0

>  <SCORE.RESTR.CAVITY>  (42) 
0

>  <SCORE.RESTR.norm>  (42) 
0

>  <SCORE.SYSTEM>  (42) 
-21.0216

>  <SCORE.SYSTEM.CONST>  (42) 
0

>  <SCORE.SYSTEM.DIHEDRAL>  (42) 
4.99936

>  <SCORE.SYSTEM.POLAR>  (42) 
-6.47058

>  <SCORE.SYSTEM.REPUL>  (42) 
0.00344313

>  <SCORE.SYSTEM.VDW>  (42) 
-1.53855

>  <SCORE.SYSTEM.norm>  (42) 
-0.955529

>  <SCORE.heavy>  (42) 
22

>  <SCORE.norm>  (42) 
0.211107

$$$$
denovo_401
     RDKit          3D

 22 23  0  0  0  0  0  0  0  0999 V2000
    5.6242    6.6271    1.9936 C   0  0  0  0  0  0  0  0  0  0  0  0
    6.3661    7.8333    2.1169 O   0  0  0  0  0  0  0  0  0  0  0  0
    6.4508    8.5306    0.8720 C   0  0  0  0  0  0  0  0  0  0  0  0
    7.3834    9.7541    1.0072 C   0  0  2  0  0  0  0  0  0  0  0  0
    6.6341   10.8920    1.6919 C   0  0  0  0  0  0  0  0  0  0  0  0
    5.3206   11.1936    1.3015 C   0  0  0  0  0  0  0  0  0  0  0  0
    4.6172   12.2328    1.9130 C   0  0  0  0  0  0  0  0  0  0  0  0
    5.2171   12.9840    2.9209 C   0  0  0  0  0  0  0  0  0  0  0  0
    6.5210   12.6972    3.3181 C   0  0  0  0  0  0  0  0  0  0  0  0
    7.2266   11.6586    2.7078 C   0  0  0  0  0  0  0  0  0  0  0  0
    7.9891   10.1997   -0.3483 C   0  0  2  0  0  0  0  0  0  0  0  0
    9.0138   11.3344   -0.2489 C   0  0  0  0  0  0  0  0  0  0  0  0
    8.9811   12.0591   -1.5981 C   0  0  0  0  0  0  0  0  0  0  0  0
    7.8335   11.4405   -2.4008 C   0  0  2  0  0  0  0  0  0  0  0  0
    7.0132   12.4085   -3.2708 C   0  0  0  0  0  0  0  0  0  0  0  0
    6.2772   11.8362   -4.5305 C   0  0  0  0  0  0  0  0  0  0  0  0
    5.1749   12.8178   -4.9780 C   0  0  0  0  0  0  0  0  0  0  0  0
    7.3377   11.7709   -5.6589 C   0  0  0  0  0  0  0  0  0  0  0  0
    5.6745   10.4175   -4.2814 C   0  0  1  0  0  0  0  0  0  0  0  0
    4.7183   10.3127   -3.0928 C   0  0  0  0  0  0  0  0  0  0  0  0
    4.9428    9.9649   -5.4219 O   0  0  0  0  0  0  0  0  0  0  0  0
    6.9610   10.7861   -1.3215 C   0  0  0  0  0  0  0  0  0  0  0  0
  1  2  1  0
  2  3  1  0
  4  3  1  6
  4  5  1  0
  5  6  2  0
  6  7  1  0
  7  8  2  0
  8  9  1  0
  9 10  2  0
  4 11  1  0
 11 12  1  1
 12 13  1  0
 13 14  1  0
 14 15  1  1
 15 16  1  0
 16 17  1  0
 16 18  1  0
 16 19  1  0
 19 20  1  1
 19 21  1  0
 14 22  1  0
 10  5  1  0
 22 11  1  0
M  END
>  <CHROM.0>  (43) 
-38.78675921,-73.95719290,68.37181085,66.90688239,-176.24297134,67.03530276
-166.28032677,68.02695070

>  <CHROM.1>  (43) 
-174.09122131,-78.80440599,-44.42205490,-175.03049245,154.26231425,161.49012982
55.65975094,62.44780325,6.49129837,10.84067101,-0.87962440,1.48302045,1.33502553
1.81578932

>  <Name>  (43) 
denovo_401

>  <RI>  (43) 
-1.15655e+09

>  <Rbt.Current_Directory>  (43) 
/tmp/claude-0/-home-user-Rare-cancers/1af35c7f-7dc4-53ce-91d2-1631a2a10a85/scratchpad/smwork/cross/dock_metad-opened_v2-statematch

>  <Rbt.Executable>  (43) 
rbdock - v25.07-alpha

>  <Rbt.Library>  (43) 
libRbt.so (25.07, Buildalpha)

>  <Rbt.Parameter_File>  (43) 
/tmp/claude-0/-home-user-Rare-cancers/1af35c7f-7dc4-53ce-91d2-1631a2a10a85/scratchpad/rdroot/share/rDock/data/scripts/dock.prm

>  <Rbt.Receptor>  (43) 
rec.prm

>  <SCORE>  (43) 
5.4823

>  <SCORE.INTER>  (43) 
21.8042

>  <SCORE.INTER.CONST>  (43) 
1

>  <SCORE.INTER.POLAR>  (43) 
0

>  <SCORE.INTER.REPUL>  (43) 
0.0683643

>  <SCORE.INTER.ROT>  (43) 
7

>  <SCORE.INTER.VDW>  (43) 
9.06234

>  <SCORE.INTER.norm>  (43) 
0.991098

>  <SCORE.INTRA>  (43) 
3.79823

>  <SCORE.INTRA.DIHEDRAL>  (43) 
3.18325

>  <SCORE.INTRA.DIHEDRAL.0>  (43) 
3.78927

>  <SCORE.INTRA.POLAR>  (43) 
0

>  <SCORE.INTRA.POLAR.0>  (43) 
0

>  <SCORE.INTRA.REPUL>  (43) 
0

>  <SCORE.INTRA.REPUL.0>  (43) 
0

>  <SCORE.INTRA.VDW>  (43) 
2.20661

>  <SCORE.INTRA.VDW.0>  (43) 
1.02728

>  <SCORE.INTRA.norm>  (43) 
0.172647

>  <SCORE.RESTR>  (43) 
0

>  <SCORE.RESTR.CAVITY>  (43) 
0

>  <SCORE.RESTR.norm>  (43) 
0

>  <SCORE.SYSTEM>  (43) 
-20.1201

>  <SCORE.SYSTEM.CONST>  (43) 
0

>  <SCORE.SYSTEM.DIHEDRAL>  (43) 
5.08616

>  <SCORE.SYSTEM.POLAR>  (43) 
-6.52888

>  <SCORE.SYSTEM.REPUL>  (43) 
0.0536417

>  <SCORE.SYSTEM.VDW>  (43) 
-0.73318

>  <SCORE.SYSTEM.norm>  (43) 
-0.914549

>  <SCORE.heavy>  (43) 
22

>  <SCORE.norm>  (43) 
0.249196

$$$$
denovo_401
     RDKit          3D

 22 23  0  0  0  0  0  0  0  0999 V2000
    3.4286   12.9620    4.6963 C   0  0  0  0  0  0  0  0  0  0  0  0
    4.7651   12.6453    4.3304 O   0  0  0  0  0  0  0  0  0  0  0  0
    4.9001   12.4781    2.9172 C   0  0  0  0  0  0  0  0  0  0  0  0
    5.3394   13.8056    2.2616 C   0  0  2  0  0  0  0  0  0  0  0  0
    4.1565   14.4260    1.5262 C   0  0  0  0  0  0  0  0  0  0  0  0
    4.3762   15.4605    0.6041 C   0  0  0  0  0  0  0  0  0  0  0  0
    3.3076   16.0445   -0.0783 C   0  0  0  0  0  0  0  0  0  0  0  0
    2.0068   15.6035    0.1527 C   0  0  0  0  0  0  0  0  0  0  0  0
    1.7730   14.5783    1.0662 C   0  0  0  0  0  0  0  0  0  0  0  0
    2.8401   13.9929    1.7500 C   0  0  0  0  0  0  0  0  0  0  0  0
    6.5688   13.6380    1.3325 C   0  0  2  0  0  0  0  0  0  0  0  0
    7.2097   14.9527    0.8762 C   0  0  0  0  0  0  0  0  0  0  0  0
    7.8911   14.6539   -0.4628 C   0  0  0  0  0  0  0  0  0  0  0  0
    7.5049   13.2216   -0.8417 C   0  0  2  0  0  0  0  0  0  0  0  0
    7.2461   12.9597   -2.3354 C   0  0  0  0  0  0  0  0  0  0  0  0
    7.1337   11.4744   -2.8226 C   0  0  0  0  0  0  0  0  0  0  0  0
    6.0481   11.3667   -3.9129 C   0  0  0  0  0  0  0  0  0  0  0  0
    8.4957   11.1293   -3.4769 C   0  0  0  0  0  0  0  0  0  0  0  0
    6.8345   10.4806   -1.6562 C   0  0  1  0  0  0  0  0  0  0  0  0
    6.4825    9.0558   -2.0852 C   0  0  0  0  0  0  0  0  0  0  0  0
    7.9574   10.3665   -0.7804 O   0  0  0  0  0  0  0  0  0  0  0  0
    6.2452   12.9630   -0.0046 C   0  0  0  0  0  0  0  0  0  0  0  0
  1  2  1  0
  2  3  1  0
  4  3  1  6
  4  5  1  0
  5  6  2  0
  6  7  1  0
  7  8  2  0
  8  9  1  0
  9 10  2  0
  4 11  1  0
 11 12  1  6
 12 13  1  0
 13 14  1  0
 14 15  1  6
 15 16  1  0
 16 17  1  0
 16 18  1  0
 16 19  1  0
 19 20  1  6
 19 21  1  0
 14 22  1  0
 10  5  1  0
 22 11  1  0
M  END
>  <CHROM.0>  (44) 
-36.86363177,61.04623677,-51.75879257,69.49432959,75.30093447,-178.60819802
-71.71983037,69.35424861

>  <CHROM.1>  (44) 
93.77614514,-105.77387925,-165.26862408,-168.62956562,167.84988656,142.43346431
170.25182735,96.69709379,5.62426809,13.02129934,0.14129081,-2.62834567,0.87851748
-1.20241908

>  <Name>  (44) 
denovo_401

>  <RI>  (44) 
-1.15655e+09

>  <Rbt.Current_Directory>  (44) 
/tmp/claude-0/-home-user-Rare-cancers/1af35c7f-7dc4-53ce-91d2-1631a2a10a85/scratchpad/smwork/cross/dock_metad-opened_v2-statematch

>  <Rbt.Executable>  (44) 
rbdock - v25.07-alpha

>  <Rbt.Library>  (44) 
libRbt.so (25.07, Buildalpha)

>  <Rbt.Parameter_File>  (44) 
/tmp/claude-0/-home-user-Rare-cancers/1af35c7f-7dc4-53ce-91d2-1631a2a10a85/scratchpad/rdroot/share/rDock/data/scripts/dock.prm

>  <Rbt.Receptor>  (44) 
rec.prm

>  <SCORE>  (44) 
7.0078

>  <SCORE.INTER>  (44) 
-3.82365

>  <SCORE.INTER.CONST>  (44) 
1

>  <SCORE.INTER.POLAR>  (44) 
0

>  <SCORE.INTER.REPUL>  (44) 
0

>  <SCORE.INTER.ROT>  (44) 
7

>  <SCORE.INTER.VDW>  (44) 
-16.2237

>  <SCORE.INTER.norm>  (44) 
-0.173802

>  <SCORE.INTRA>  (44) 
13.6156

>  <SCORE.INTRA.DIHEDRAL>  (44) 
17.4652

>  <SCORE.INTRA.DIHEDRAL.0>  (44) 
3.78927

>  <SCORE.INTRA.POLAR>  (44) 
0

>  <SCORE.INTRA.POLAR.0>  (44) 
0

>  <SCORE.INTRA.REPUL>  (44) 
0

>  <SCORE.INTRA.REPUL.0>  (44) 
0

>  <SCORE.INTRA.VDW>  (44) 
4.88298

>  <SCORE.INTRA.VDW.0>  (44) 
1.02728

>  <SCORE.INTRA.norm>  (44) 
0.618891

>  <SCORE.RESTR>  (44) 
0.065702

>  <SCORE.RESTR.CAVITY>  (44) 
0.065702

>  <SCORE.RESTR.norm>  (44) 
0.00298646

>  <SCORE.SYSTEM>  (44) 
-2.84988

>  <SCORE.SYSTEM.CONST>  (44) 
0

>  <SCORE.SYSTEM.DIHEDRAL>  (44) 
5.34752

>  <SCORE.SYSTEM.POLAR>  (44) 
-2.37547

>  <SCORE.SYSTEM.REPUL>  (44) 
0.634238

>  <SCORE.SYSTEM.VDW>  (44) 
-0.618228

>  <SCORE.SYSTEM.norm>  (44) 
-0.12954

>  <SCORE.heavy>  (44) 
22

>  <SCORE.norm>  (44) 
0.318535

$$$$
denovo_401
     RDKit          3D

 22 23  0  0  0  0  0  0  0  0999 V2000
    6.8554    6.7685    3.0147 C   0  0  0  0  0  0  0  0  0  0  0  0
    7.3434    7.5758    1.9514 O   0  0  0  0  0  0  0  0  0  0  0  0
    7.3106    8.9652    2.2854 C   0  0  0  0  0  0  0  0  0  0  0  0
    6.9079    9.8022    1.0516 C   0  0  2  0  0  0  0  0  0  0  0  0
    6.9804   11.2856    1.3970 C   0  0  0  0  0  0  0  0  0  0  0  0
    7.1148   12.2327    0.3705 C   0  0  0  0  0  0  0  0  0  0  0  0
    7.1858   13.5955    0.6644 C   0  0  0  0  0  0  0  0  0  0  0  0
    7.1245   14.0290    1.9866 C   0  0  0  0  0  0  0  0  0  0  0  0
    6.9924   13.1004    3.0164 C   0  0  0  0  0  0  0  0  0  0  0  0
    6.9215   11.7369    2.7250 C   0  0  0  0  0  0  0  0  0  0  0  0
    5.5173    9.4113    0.4893 C   0  0  2  0  0  0  0  0  0  0  0  0
    5.3332    7.9138    0.2225 C   0  0  0  0  0  0  0  0  0  0  0  0
    4.2779    7.8032   -0.8824 C   0  0  0  0  0  0  0  0  0  0  0  0
    3.9818    9.2304   -1.3508 C   0  0  2  0  0  0  0  0  0  0  0  0
    3.7390    9.4145   -2.8588 C   0  0  0  0  0  0  0  0  0  0  0  0
    4.9828    9.5008   -3.8083 C   0  0  0  0  0  0  0  0  0  0  0  0
    5.9545    8.3443   -3.4968 C   0  0  0  0  0  0  0  0  0  0  0  0
    4.4447    9.2909   -5.2466 C   0  0  0  0  0  0  0  0  0  0  0  0
    5.7203   10.8734   -3.7091 C   0  0  1  0  0  0  0  0  0  0  0  0
    7.0715   10.9426   -4.4214 C   0  0  0  0  0  0  0  0  0  0  0  0
    4.9246   11.9230   -4.2624 O   0  0  0  0  0  0  0  0  0  0  0  0
    5.2140   10.0172   -0.8851 C   0  0  0  0  0  0  0  0  0  0  0  0
  1  2  1  0
  2  3  1  0
  4  3  1  1
  4  5  1  0
  5  6  2  0
  6  7  1  0
  7  8  2  0
  8  9  1  0
  9 10  2  0
  4 11  1  0
 11 12  1  6
 12 13  1  0
 13 14  1  0
 14 15  1  6
 15 16  1  0
 16 17  1  0
 16 18  1  0
 16 19  1  0
 19 20  1  6
 19 21  1  0
 14 22  1  0
 10  5  1  0
 22 11  1  0
M  END
>  <CHROM.0>  (45) 
-37.74442624,61.70058692,170.90981079,68.87688163,-178.60062569,-40.48506424
-169.15325940,71.19672176

>  <CHROM.1>  (45) 
-142.11340721,-175.75774831,158.13544082,-51.56466325,-80.75118460,48.69204110
169.94728941,-59.90321015,5.98277383,10.10850898,-0.60833912,0.44729244,1.22453970
2.54058985

>  <Name>  (45) 
denovo_401

>  <RI>  (45) 
-1.15655e+09

>  <Rbt.Current_Directory>  (45) 
/tmp/claude-0/-home-user-Rare-cancers/1af35c7f-7dc4-53ce-91d2-1631a2a10a85/scratchpad/smwork/cross/dock_metad-opened_v2-statematch

>  <Rbt.Executable>  (45) 
rbdock - v25.07-alpha

>  <Rbt.Library>  (45) 
libRbt.so (25.07, Buildalpha)

>  <Rbt.Parameter_File>  (45) 
/tmp/claude-0/-home-user-Rare-cancers/1af35c7f-7dc4-53ce-91d2-1631a2a10a85/scratchpad/rdroot/share/rDock/data/scripts/dock.prm

>  <Rbt.Receptor>  (45) 
rec.prm

>  <SCORE>  (45) 
10.0226

>  <SCORE.INTER>  (45) 
4.20817

>  <SCORE.INTER.CONST>  (45) 
1

>  <SCORE.INTER.POLAR>  (45) 
-0.791258

>  <SCORE.INTER.REPUL>  (45) 
0

>  <SCORE.INTER.ROT>  (45) 
7

>  <SCORE.INTER.VDW>  (45) 
-5.50155

>  <SCORE.INTER.norm>  (45) 
0.191281

>  <SCORE.INTRA>  (45) 
9.98781

>  <SCORE.INTRA.DIHEDRAL>  (45) 
5.76952

>  <SCORE.INTRA.DIHEDRAL.0>  (45) 
3.78927

>  <SCORE.INTRA.POLAR>  (45) 
0

>  <SCORE.INTRA.POLAR.0>  (45) 
0

>  <SCORE.INTRA.REPUL>  (45) 
0

>  <SCORE.INTRA.REPUL.0>  (45) 
0

>  <SCORE.INTRA.VDW>  (45) 
7.10305

>  <SCORE.INTRA.VDW.0>  (45) 
1.02728

>  <SCORE.INTRA.norm>  (45) 
0.453992

>  <SCORE.RESTR>  (45) 
0.003149

>  <SCORE.RESTR.CAVITY>  (45) 
0.003149

>  <SCORE.RESTR.norm>  (45) 
0.000143137

>  <SCORE.SYSTEM>  (45) 
-4.17652

>  <SCORE.SYSTEM.CONST>  (45) 
0

>  <SCORE.SYSTEM.DIHEDRAL>  (45) 
5.94923

>  <SCORE.SYSTEM.POLAR>  (45) 
-3.52415

>  <SCORE.SYSTEM.REPUL>  (45) 
0.947073

>  <SCORE.SYSTEM.VDW>  (45) 
0.0956256

>  <SCORE.SYSTEM.norm>  (45) 
-0.189842

>  <SCORE.heavy>  (45) 
22

>  <SCORE.norm>  (45) 
0.455573

$$$$
denovo_401
     RDKit          3D

 22 23  0  0  0  0  0  0  0  0999 V2000
    9.4476   14.6248   -1.4265 C   0  0  0  0  0  0  0  0  0  0  0  0
    8.3610   13.9802   -0.7751 O   0  0  0  0  0  0  0  0  0  0  0  0
    7.3914   13.5041   -1.7114 C   0  0  0  0  0  0  0  0  0  0  0  0
    7.3091   11.9629   -1.6584 C   0  0  2  0  0  0  0  0  0  0  0  0
    6.6305   11.4456   -2.9221 C   0  0  0  0  0  0  0  0  0  0  0  0
    6.9970   11.9683   -4.1716 C   0  0  0  0  0  0  0  0  0  0  0  0
    6.3868   11.5111   -5.3410 C   0  0  0  0  0  0  0  0  0  0  0  0
    5.4027   10.5275   -5.2767 C   0  0  0  0  0  0  0  0  0  0  0  0
    5.0276   10.0001   -4.0433 C   0  0  0  0  0  0  0  0  0  0  0  0
    5.6361   10.4560   -2.8724 C   0  0  0  0  0  0  0  0  0  0  0  0
    6.6085   11.4431   -0.3771 C   0  0  2  0  0  0  0  0  0  0  0  0
    7.1537   12.0255    0.9311 C   0  0  0  0  0  0  0  0  0  0  0  0
    6.8679   10.9817    2.0153 C   0  0  0  0  0  0  0  0  0  0  0  0
    6.3085    9.7486    1.3007 C   0  0  2  0  0  0  0  0  0  0  0  0
    6.7482    8.3830    1.8564 C   0  0  0  0  0  0  0  0  0  0  0  0
    5.7916    7.1570    1.6621 C   0  0  0  0  0  0  0  0  0  0  0  0
    6.6176    5.9076    1.2939 C   0  0  0  0  0  0  0  0  0  0  0  0
    5.1338    6.8983    3.0415 C   0  0  0  0  0  0  0  0  0  0  0  0
    4.6907    7.4184    0.5862 C   0  0  1  0  0  0  0  0  0  0  0  0
    5.1937    7.5120   -0.8547 C   0  0  0  0  0  0  0  0  0  0  0  0
    3.7074    6.3820    0.5979 O   0  0  0  0  0  0  0  0  0  0  0  0
    6.7776    9.9375   -0.1479 C   0  0  0  0  0  0  0  0  0  0  0  0
  1  2  1  0
  2  3  1  0
  4  3  1  6
  4  5  1  0
  5  6  2  0
  6  7  1  0
  7  8  2  0
  8  9  1  0
  9 10  2  0
  4 11  1  0
 11 12  1  1
 12 13  1  0
 13 14  1  0
 14 15  1  1
 15 16  1  0
 16 17  1  0
 16 18  1  0
 16 19  1  0
 19 20  1  6
 19 21  1  0
 14 22  1  0
 10  5  1  0
 22 11  1  0
M  END
>  <CHROM.0>  (46) 
74.79187288,63.34321990,67.67141377,179.36396342,179.15546338,-178.26447240
-168.24094409,72.05188592

>  <CHROM.1>  (46) 
115.93157865,-162.21956367,44.73569105,-50.70937501,152.63603862,139.06924398
69.18780499,-56.66872189,6.37551993,10.13732577,-0.75489069,-1.01208658,1.03631348
2.00239006

>  <Name>  (46) 
denovo_401

>  <RI>  (46) 
-1.15655e+09

>  <Rbt.Current_Directory>  (46) 
/tmp/claude-0/-home-user-Rare-cancers/1af35c7f-7dc4-53ce-91d2-1631a2a10a85/scratchpad/smwork/cross/dock_metad-opened_v2-statematch

>  <Rbt.Executable>  (46) 
rbdock - v25.07-alpha

>  <Rbt.Library>  (46) 
libRbt.so (25.07, Buildalpha)

>  <Rbt.Parameter_File>  (46) 
/tmp/claude-0/-home-user-Rare-cancers/1af35c7f-7dc4-53ce-91d2-1631a2a10a85/scratchpad/rdroot/share/rDock/data/scripts/dock.prm

>  <Rbt.Receptor>  (46) 
rec.prm

>  <SCORE>  (46) 
13.1091

>  <SCORE.INTER>  (46) 
10.7424

>  <SCORE.INTER.CONST>  (46) 
1

>  <SCORE.INTER.POLAR>  (46) 
-0.279196

>  <SCORE.INTER.REPUL>  (46) 
0

>  <SCORE.INTER.ROT>  (46) 
7

>  <SCORE.INTER.VDW>  (46) 
-0.708319

>  <SCORE.INTER.norm>  (46) 
0.488292

>  <SCORE.INTRA>  (46) 
11.7331

>  <SCORE.INTRA.DIHEDRAL>  (46) 
14.4462

>  <SCORE.INTRA.DIHEDRAL.0>  (46) 
3.78927

>  <SCORE.INTRA.POLAR>  (46) 
0

>  <SCORE.INTRA.POLAR.0>  (46) 
0

>  <SCORE.INTRA.REPUL>  (46) 
0

>  <SCORE.INTRA.REPUL.0>  (46) 
0

>  <SCORE.INTRA.VDW>  (46) 
4.50993

>  <SCORE.INTRA.VDW.0>  (46) 
1.02728

>  <SCORE.INTRA.norm>  (46) 
0.533321

>  <SCORE.RESTR>  (46) 
0.00837409

>  <SCORE.RESTR.CAVITY>  (46) 
0.00837409

>  <SCORE.RESTR.norm>  (46) 
0.00038064

>  <SCORE.SYSTEM>  (46) 
-9.37471

>  <SCORE.SYSTEM.CONST>  (46) 
0

>  <SCORE.SYSTEM.DIHEDRAL>  (46) 
2.84073

>  <SCORE.SYSTEM.POLAR>  (46) 
-3.59211

>  <SCORE.SYSTEM.REPUL>  (46) 
0.575209

>  <SCORE.SYSTEM.VDW>  (46) 
-1.45793

>  <SCORE.SYSTEM.norm>  (46) 
-0.426123

>  <SCORE.heavy>  (46) 
22

>  <SCORE.norm>  (46) 
0.59587

$$$$
denovo_401
     RDKit          3D

 22 23  0  0  0  0  0  0  0  0999 V2000
    3.2178    9.2482   -2.8336 C   0  0  0  0  0  0  0  0  0  0  0  0
    4.0586    9.2553   -1.6876 O   0  0  0  0  0  0  0  0  0  0  0  0
    5.3603    8.7447   -1.9846 C   0  0  0  0  0  0  0  0  0  0  0  0
    6.1586    8.5253   -0.6810 C   0  0  2  0  0  0  0  0  0  0  0  0
    5.3779    7.5980    0.2441 C   0  0  0  0  0  0  0  0  0  0  0  0
    5.7868    7.4403    1.5770 C   0  0  0  0  0  0  0  0  0  0  0  0
    5.0882    6.5945    2.4404 C   0  0  0  0  0  0  0  0  0  0  0  0
    3.9738    5.8953    1.9830 C   0  0  0  0  0  0  0  0  0  0  0  0
    3.5569    6.0407    0.6619 C   0  0  0  0  0  0  0  0  0  0  0  0
    4.2540    6.8858   -0.2034 C   0  0  0  0  0  0  0  0  0  0  0  0
    6.5352    9.8540    0.0229 C   0  0  2  0  0  0  0  0  0  0  0  0
    7.4506    9.6953    1.2413 C   0  0  0  0  0  0  0  0  0  0  0  0
    7.1714   10.9001    2.1453 C   0  0  0  0  0  0  0  0  0  0  0  0
    5.9927   11.6526    1.5220 C   0  0  2  0  0  0  0  0  0  0  0  0
    4.9761   12.2579    2.5053 C   0  0  0  0  0  0  0  0  0  0  0  0
    3.9755   13.3391    1.9704 C   0  0  0  0  0  0  0  0  0  0  0  0
    3.1415   12.7480    0.8155 C   0  0  0  0  0  0  0  0  0  0  0  0
    3.0078   13.6499    3.1406 C   0  0  0  0  0  0  0  0  0  0  0  0
    4.6936   14.6467    1.5097 C   0  0  1  0  0  0  0  0  0  0  0  0
    5.8316   14.4495    0.5077 C   0  0  0  0  0  0  0  0  0  0  0  0
    3.7715   15.5467    0.8927 O   0  0  0  0  0  0  0  0  0  0  0  0
    5.3365   10.5970    0.6224 C   0  0  0  0  0  0  0  0  0  0  0  0
  1  2  1  0
  2  3  1  0
  4  3  1  6
  4  5  1  0
  5  6  2  0
  6  7  1  0
  7  8  2  0
  8  9  1  0
  9 10  2  0
  4 11  1  0
 11 12  1  1
 12 13  1  0
 13 14  1  0
 14 15  1  1
 15 16  1  0
 16 17  1  0
 16 18  1  0
 16 19  1  0
 19 20  1  6
 19 21  1  0
 14 22  1  0
 10  5  1  0
 22 11  1  0
M  END
>  <CHROM.0>  (47) 
162.91266214,62.07953059,-46.72794643,-58.41926391,68.93460831,65.71881412
-72.23161430,71.70484834

>  <CHROM.1>  (47) 
-169.71865538,56.30518811,-168.77215295,-173.97216602,164.21274146,58.58192911
52.75046935,173.02610411,4.90922853,10.37710766,0.71483947,1.42474024,1.16595633
-2.82892782

>  <Name>  (47) 
denovo_401

>  <RI>  (47) 
-1.15655e+09

>  <Rbt.Current_Directory>  (47) 
/tmp/claude-0/-home-user-Rare-cancers/1af35c7f-7dc4-53ce-91d2-1631a2a10a85/scratchpad/smwork/cross/dock_metad-opened_v2-statematch

>  <Rbt.Executable>  (47) 
rbdock - v25.07-alpha

>  <Rbt.Library>  (47) 
libRbt.so (25.07, Buildalpha)

>  <Rbt.Parameter_File>  (47) 
/tmp/claude-0/-home-user-Rare-cancers/1af35c7f-7dc4-53ce-91d2-1631a2a10a85/scratchpad/rdroot/share/rDock/data/scripts/dock.prm

>  <Rbt.Receptor>  (47) 
rec.prm

>  <SCORE>  (47) 
27.4866

>  <SCORE.INTER>  (47) 
24.6146

>  <SCORE.INTER.CONST>  (47) 
1

>  <SCORE.INTER.POLAR>  (47) 
-0.167152

>  <SCORE.INTER.REPUL>  (47) 
0

>  <SCORE.INTER.ROT>  (47) 
7

>  <SCORE.INTER.VDW>  (47) 
12.783

>  <SCORE.INTER.norm>  (47) 
1.11885

>  <SCORE.INTRA>  (47) 
5.0606

>  <SCORE.INTRA.DIHEDRAL>  (47) 
-0.390879

>  <SCORE.INTRA.DIHEDRAL.0>  (47) 
3.78927

>  <SCORE.INTRA.POLAR>  (47) 
0

>  <SCORE.INTRA.POLAR.0>  (47) 
0

>  <SCORE.INTRA.REPUL>  (47) 
0

>  <SCORE.INTRA.REPUL.0>  (47) 
0

>  <SCORE.INTRA.VDW>  (47) 
5.25604

>  <SCORE.INTRA.VDW.0>  (47) 
1.02728

>  <SCORE.INTRA.norm>  (47) 
0.230027

>  <SCORE.RESTR>  (47) 
0.0585666

>  <SCORE.RESTR.CAVITY>  (47) 
0.0585666

>  <SCORE.RESTR.norm>  (47) 
0.00266212

>  <SCORE.SYSTEM>  (47) 
-2.2472

>  <SCORE.SYSTEM.CONST>  (47) 
0

>  <SCORE.SYSTEM.DIHEDRAL>  (47) 
4.21766

>  <SCORE.SYSTEM.POLAR>  (47) 
-2.45528

>  <SCORE.SYSTEM.REPUL>  (47) 
0.86003

>  <SCORE.SYSTEM.VDW>  (47) 
-0.308224

>  <SCORE.SYSTEM.norm>  (47) 
-0.102146

>  <SCORE.heavy>  (47) 
22

>  <SCORE.norm>  (47) 
1.24939

$$$$
denovo_401
     RDKit          3D

 22 23  0  0  0  0  0  0  0  0999 V2000
    5.6184   11.1934    1.2539 C   0  0  0  0  0  0  0  0  0  0  0  0
    6.4010   11.3037    0.0724 O   0  0  0  0  0  0  0  0  0  0  0  0
    7.2962   10.1988   -0.0729 C   0  0  0  0  0  0  0  0  0  0  0  0
    6.5794    9.0174   -0.7626 C   0  0  2  0  0  0  0  0  0  0  0  0
    5.9960    9.4824   -2.0925 C   0  0  0  0  0  0  0  0  0  0  0  0
    5.2147    8.6010   -2.8551 C   0  0  0  0  0  0  0  0  0  0  0  0
    4.6730    9.0049   -4.0766 C   0  0  0  0  0  0  0  0  0  0  0  0
    4.9058   10.2933   -4.5518 C   0  0  0  0  0  0  0  0  0  0  0  0
    5.6805   11.1790   -3.8065 C   0  0  0  0  0  0  0  0  0  0  0  0
    6.2235   10.7772   -2.5848 C   0  0  0  0  0  0  0  0  0  0  0  0
    5.5024    8.3605    0.1381 C   0  0  2  0  0  0  0  0  0  0  0  0
    6.0522    7.6577    1.3836 C   0  0  0  0  0  0  0  0  0  0  0  0
    5.0374    6.5677    1.7422 C   0  0  0  0  0  0  0  0  0  0  0  0
    3.9997    6.5468    0.6165 C   0  0  2  0  0  0  0  0  0  0  0  0
    3.4681    5.1623    0.2075 C   0  0  0  0  0  0  0  0  0  0  0  0
    2.1838    4.6171    0.9213 C   0  0  0  0  0  0  0  0  0  0  0  0
    1.2985    3.8740   -0.0999 C   0  0  0  0  0  0  0  0  0  0  0  0
    2.6749    3.5799    1.9632 C   0  0  0  0  0  0  0  0  0  0  0  0
    1.3678    5.7426    1.6320 C   0  0  1  0  0  0  0  0  0  0  0  0
    2.0953    6.4581    2.7708 C   0  0  0  0  0  0  0  0  0  0  0  0
    0.9831    6.7591    0.7048 O   0  0  0  0  0  0  0  0  0  0  0  0
    4.7291    7.2294   -0.5480 C   0  0  0  0  0  0  0  0  0  0  0  0
  1  2  1  0
  2  3  1  0
  4  3  1  1
  4  5  1  0
  5  6  2  0
  6  7  1  0
  7  8  2  0
  8  9  1  0
  9 10  2  0
  4 11  1  0
 11 12  1  1
 12 13  1  0
 13 14  1  0
 14 15  1  6
 15 16  1  0
 16 17  1  0
 16 18  1  0
 16 19  1  0
 19 20  1  1
 19 21  1  0
 14 22  1  0
 10  5  1  0
 22 11  1  0
M  END
>  <CHROM.0>  (48) 
163.64600311,-72.22184872,70.66066984,67.48685822,179.70212342,67.55245473
-168.25399121,71.22336071

>  <CHROM.1>  (48) 
85.29889068,55.40558790,-175.49160845,-66.03512810,91.10981347,141.45853854
-63.05215376,153.22204944,4.40071607,7.86524527,-0.28108124,-0.67901164,0.84093839
1.83106156

>  <Name>  (48) 
denovo_401

>  <RI>  (48) 
-1.15655e+09

>  <Rbt.Current_Directory>  (48) 
/tmp/claude-0/-home-user-Rare-cancers/1af35c7f-7dc4-53ce-91d2-1631a2a10a85/scratchpad/smwork/cross/dock_metad-opened_v2-statematch

>  <Rbt.Executable>  (48) 
rbdock - v25.07-alpha

>  <Rbt.Library>  (48) 
libRbt.so (25.07, Buildalpha)

>  <Rbt.Parameter_File>  (48) 
/tmp/claude-0/-home-user-Rare-cancers/1af35c7f-7dc4-53ce-91d2-1631a2a10a85/scratchpad/rdroot/share/rDock/data/scripts/dock.prm

>  <Rbt.Receptor>  (48) 
rec.prm

>  <SCORE>  (48) 
31.1292

>  <SCORE.INTER>  (48) 
37.6113

>  <SCORE.INTER.CONST>  (48) 
1

>  <SCORE.INTER.POLAR>  (48) 
-0.266245

>  <SCORE.INTER.REPUL>  (48) 
0

>  <SCORE.INTER.ROT>  (48) 
7

>  <SCORE.INTER.VDW>  (48) 
26.1165

>  <SCORE.INTER.norm>  (48) 
1.7096

>  <SCORE.INTRA>  (48) 
14.0741

>  <SCORE.INTRA.DIHEDRAL>  (48) 
11.7672

>  <SCORE.INTRA.DIHEDRAL.0>  (48) 
3.78927

>  <SCORE.INTRA.POLAR>  (48) 
0

>  <SCORE.INTRA.POLAR.0>  (48) 
0

>  <SCORE.INTRA.REPUL>  (48) 
0

>  <SCORE.INTRA.REPUL.0>  (48) 
0

>  <SCORE.INTRA.VDW>  (48) 
8.19054

>  <SCORE.INTRA.VDW.0>  (48) 
1.02728

>  <SCORE.INTRA.norm>  (48) 
0.639734

>  <SCORE.RESTR>  (48) 
0.559289

>  <SCORE.RESTR.CAVITY>  (48) 
0.559289

>  <SCORE.RESTR.norm>  (48) 
0.0254222

>  <SCORE.SYSTEM>  (48) 
-21.1155

>  <SCORE.SYSTEM.CONST>  (48) 
0

>  <SCORE.SYSTEM.DIHEDRAL>  (48) 
4.4084

>  <SCORE.SYSTEM.POLAR>  (48) 
-6.57508

>  <SCORE.SYSTEM.REPUL>  (48) 
0.0888293

>  <SCORE.SYSTEM.VDW>  (48) 
-1.4086

>  <SCORE.SYSTEM.norm>  (48) 
-0.959796

>  <SCORE.heavy>  (48) 
22

>  <SCORE.norm>  (48) 
1.41496

$$$$
denovo_401
     RDKit          3D

 22 23  0  0  0  0  0  0  0  0999 V2000
    6.9473   12.8015    0.7327 C   0  0  0  0  0  0  0  0  0  0  0  0
    6.5329   11.4967    0.3503 O   0  0  0  0  0  0  0  0  0  0  0  0
    7.6258   10.7194   -0.1445 C   0  0  0  0  0  0  0  0  0  0  0  0
    7.1510    9.2925   -0.4957 C   0  0  2  0  0  0  0  0  0  0  0  0
    6.3308    9.3308   -1.7806 C   0  0  0  0  0  0  0  0  0  0  0  0
    5.6404   10.5013   -2.1301 C   0  0  0  0  0  0  0  0  0  0  0  0
    4.8815   10.5575   -3.3003 C   0  0  0  0  0  0  0  0  0  0  0  0
    4.8018    9.4454   -4.1351 C   0  0  0  0  0  0  0  0  0  0  0  0
    5.4806    8.2759   -3.8006 C   0  0  0  0  0  0  0  0  0  0  0  0
    6.2400    8.2173   -2.6306 C   0  0  0  0  0  0  0  0  0  0  0  0
    6.3725    8.6171    0.6620 C   0  0  2  0  0  0  0  0  0  0  0  0
    7.2316    7.7559    1.5937 C   0  0  0  0  0  0  0  0  0  0  0  0
    6.2922    6.7024    2.1888 C   0  0  0  0  0  0  0  0  0  0  0  0
    4.9453    6.8643    1.4790 C   0  0  2  0  0  0  0  0  0  0  0  0
    4.1798    5.5663    1.1690 C   0  0  0  0  0  0  0  0  0  0  0  0
    2.6165    5.6272    1.0784 C   0  0  0  0  0  0  0  0  0  0  0  0
    2.1982    6.6687    0.0205 C   0  0  0  0  0  0  0  0  0  0  0  0
    2.1573    4.2343    0.5770 C   0  0  0  0  0  0  0  0  0  0  0  0
    1.9471    5.9476    2.4521 C   0  0  1  0  0  0  0  0  0  0  0  0
    2.3505    5.0291    3.6061 C   0  0  0  0  0  0  0  0  0  0  0  0
    2.2566    7.2767    2.8746 O   0  0  0  0  0  0  0  0  0  0  0  0
    5.3130    7.6147    0.1921 C   0  0  0  0  0  0  0  0  0  0  0  0
  1  2  1  0
  2  3  1  0
  4  3  1  1
  4  5  1  0
  5  6  2  0
  6  7  1  0
  7  8  2  0
  8  9  1  0
  9 10  2  0
  4 11  1  0
 11 12  1  1
 12 13  1  0
 13 14  1  0
 14 15  1  6
 15 16  1  0
 16 17  1  0
 16 18  1  0
 16 19  1  0
 19 20  1  1
 19 21  1  0
 14 22  1  0
 10  5  1  0
 22 11  1  0
M  END
>  <CHROM.0>  (49) 
157.79766477,-73.16448353,66.26972985,68.23353541,64.59407049,74.05285433
-168.14407022,67.17380486

>  <CHROM.1>  (49) 
177.70806512,73.66335239,-27.19576948,-93.21800320,152.23981713,56.57701950
-53.63079866,-82.32110268,4.94040763,8.10982868,0.11794595,-0.67962607,0.83268264
1.77016186

>  <Name>  (49) 
denovo_401

>  <RI>  (49) 
-1.15655e+09

>  <Rbt.Current_Directory>  (49) 
/tmp/claude-0/-home-user-Rare-cancers/1af35c7f-7dc4-53ce-91d2-1631a2a10a85/scratchpad/smwork/cross/dock_metad-opened_v2-statematch

>  <Rbt.Executable>  (49) 
rbdock - v25.07-alpha

>  <Rbt.Library>  (49) 
libRbt.so (25.07, Buildalpha)

>  <Rbt.Parameter_File>  (49) 
/tmp/claude-0/-home-user-Rare-cancers/1af35c7f-7dc4-53ce-91d2-1631a2a10a85/scratchpad/rdroot/share/rDock/data/scripts/dock.prm

>  <Rbt.Receptor>  (49) 
rec.prm

>  <SCORE>  (49) 
34.4583

>  <SCORE.INTER>  (49) 
49.4866

>  <SCORE.INTER.CONST>  (49) 
1

>  <SCORE.INTER.POLAR>  (49) 
-0.242789

>  <SCORE.INTER.REPUL>  (49) 
0

>  <SCORE.INTER.ROT>  (49) 
7

>  <SCORE.INTER.VDW>  (49) 
37.9121

>  <SCORE.INTER.norm>  (49) 
2.24939

>  <SCORE.INTRA>  (49) 
6.28137

>  <SCORE.INTRA.DIHEDRAL>  (49) 
6.50361

>  <SCORE.INTRA.DIHEDRAL.0>  (49) 
3.78927

>  <SCORE.INTRA.POLAR>  (49) 
0

>  <SCORE.INTRA.POLAR.0>  (49) 
0

>  <SCORE.INTRA.REPUL>  (49) 
0

>  <SCORE.INTRA.REPUL.0>  (49) 
0

>  <SCORE.INTRA.VDW>  (49) 
3.02956

>  <SCORE.INTRA.VDW.0>  (49) 
1.02728

>  <SCORE.INTRA.norm>  (49) 
0.285517

>  <SCORE.RESTR>  (49) 
0

>  <SCORE.RESTR.CAVITY>  (49) 
0

>  <SCORE.RESTR.norm>  (49) 
0

>  <SCORE.SYSTEM>  (49) 
-21.3097

>  <SCORE.SYSTEM.CONST>  (49) 
0

>  <SCORE.SYSTEM.DIHEDRAL>  (49) 
5.54643

>  <SCORE.SYSTEM.POLAR>  (49) 
-6.46474

>  <SCORE.SYSTEM.VDW>  (49) 
-2.10283

>  <SCORE.SYSTEM.norm>  (49) 
-0.968625

>  <SCORE.heavy>  (49) 
22

>  <SCORE.norm>  (49) 
1.56628

$$$$
denovo_401
     RDKit          3D

 22 23  0  0  0  0  0  0  0  0999 V2000
    6.1554   12.9499    1.4006 C   0  0  0  0  0  0  0  0  0  0  0  0
    6.7779   12.0098    0.5351 O   0  0  0  0  0  0  0  0  0  0  0  0
    5.8823   10.9590    0.1651 C   0  0  0  0  0  0  0  0  0  0  0  0
    6.6000    9.9421   -0.7491 C   0  0  2  0  0  0  0  0  0  0  0  0
    6.7219   10.5192   -2.1552 C   0  0  0  0  0  0  0  0  0  0  0  0
    5.6177   10.4821   -3.0201 C   0  0  0  0  0  0  0  0  0  0  0  0
    5.7080   11.0023   -4.3123 C   0  0  0  0  0  0  0  0  0  0  0  0
    6.9021   11.5648   -4.7569 C   0  0  0  0  0  0  0  0  0  0  0  0
    8.0072   11.6076   -3.9100 C   0  0  0  0  0  0  0  0  0  0  0  0
    7.9194   11.0877   -2.6173 C   0  0  0  0  0  0  0  0  0  0  0  0
    5.9129    8.5527   -0.7567 C   0  0  2  0  0  0  0  0  0  0  0  0
    4.4956    8.5432   -1.3387 C   0  0  0  0  0  0  0  0  0  0  0  0
    3.7722    7.3629   -0.6828 C   0  0  0  0  0  0  0  0  0  0  0  0
    4.7202    6.8038    0.3815 C   0  0  2  0  0  0  0  0  0  0  0  0
    4.0666    6.3184    1.6869 C   0  0  0  0  0  0  0  0  0  0  0  0
    2.6570    5.6383    1.6058 C   0  0  0  0  0  0  0  0  0  0  0  0
    2.6929    4.4908    0.5759 C   0  0  0  0  0  0  0  0  0  0  0  0
    2.3971    5.0132    3.0001 C   0  0  0  0  0  0  0  0  0  0  0  0
    1.5210    6.6501    1.2542 C   0  0  1  0  0  0  0  0  0  0  0  0
    0.4127    6.1023    0.3545 C   0  0  0  0  0  0  0  0  0  0  0  0
    0.8752    7.1257    2.4365 O   0  0  0  0  0  0  0  0  0  0  0  0
    5.6847    7.9685    0.6414 C   0  0  0  0  0  0  0  0  0  0  0  0
  1  2  1  0
  2  3  1  0
  4  3  1  1
  4  5  1  0
  5  6  2  0
  6  7  1  0
  7  8  2  0
  8  9  1  0
  9 10  2  0
  4 11  1  0
 11 12  1  1
 12 13  1  0
 13 14  1  0
 14 15  1  1
 15 16  1  0
 16 17  1  0
 16 18  1  0
 16 19  1  0
 19 20  1  6
 19 21  1  0
 14 22  1  0
 10  5  1  0
 22 11  1  0
M  END
>  <CHROM.0>  (50) 
-42.86470270,-75.26832825,70.17726743,65.94406846,179.73368177,67.38714098
-167.98812805,171.28845237

>  <CHROM.1>  (50) 
-178.79084485,-76.58210953,-79.53108218,64.35740520,35.26417358,52.74450566
143.80822137,176.25692399,4.71196581,8.72434144,-0.36379647,-0.29002785,0.92307232
1.30141540

>  <Name>  (50) 
denovo_401

>  <RI>  (50) 
-1.15655e+09

>  <Rbt.Current_Directory>  (50) 
/tmp/claude-0/-home-user-Rare-cancers/1af35c7f-7dc4-53ce-91d2-1631a2a10a85/scratchpad/smwork/cross/dock_metad-opened_v2-statematch

>  <Rbt.Executable>  (50) 
rbdock - v25.07-alpha

>  <Rbt.Library>  (50) 
libRbt.so (25.07, Buildalpha)

>  <Rbt.Parameter_File>  (50) 
/tmp/claude-0/-home-user-Rare-cancers/1af35c7f-7dc4-53ce-91d2-1631a2a10a85/scratchpad/rdroot/share/rDock/data/scripts/dock.prm

>  <Rbt.Receptor>  (50) 
rec.prm

>  <SCORE>  (50) 
38.4080

>  <SCORE.INTER>  (50) 
45.5029

>  <SCORE.INTER.CONST>  (50) 
1

>  <SCORE.INTER.POLAR>  (50) 
0

>  <SCORE.INTER.REPUL>  (50) 
0

>  <SCORE.INTER.ROT>  (50) 
7

>  <SCORE.INTER.VDW>  (50) 
33.1029

>  <SCORE.INTER.norm>  (50) 
2.06831

>  <SCORE.INTRA>  (50) 
11.6069

>  <SCORE.INTRA.DIHEDRAL>  (50) 
5.32597

>  <SCORE.INTRA.DIHEDRAL.0>  (50) 
3.78927

>  <SCORE.INTRA.POLAR>  (50) 
0

>  <SCORE.INTRA.POLAR.0>  (50) 
0

>  <SCORE.INTRA.REPUL>  (50) 
0

>  <SCORE.INTRA.REPUL.0>  (50) 
0

>  <SCORE.INTRA.VDW>  (50) 
8.94396

>  <SCORE.INTRA.VDW.0>  (50) 
1.02728

>  <SCORE.INTRA.norm>  (50) 
0.527589

>  <SCORE.RESTR>  (50) 
0.000167743

>  <SCORE.RESTR.CAVITY>  (50) 
0.000167743

>  <SCORE.RESTR.norm>  (50) 
7.62468e-06

>  <SCORE.SYSTEM>  (50) 
-18.702

>  <SCORE.SYSTEM.CONST>  (50) 
0

>  <SCORE.SYSTEM.DIHEDRAL>  (50) 
4.53152

>  <SCORE.SYSTEM.POLAR>  (50) 
-5.99982

>  <SCORE.SYSTEM.REPUL>  (50) 
0.0885382

>  <SCORE.SYSTEM.VDW>  (50) 
-1.01106

>  <SCORE.SYSTEM.norm>  (50) 
-0.850092

>  <SCORE.heavy>  (50) 
22

>  <SCORE.norm>  (50) 
1.74582

$$$$
