denovo_401
     RDKit          3D

 22 23  0  0  0  0  0  0  0  0999 V2000
   -9.4541    8.1113  -20.0537 C   0  0  0  0  0  0  0  0  0  0  0  0
   -9.1811    8.8689  -18.8825 O   0  0  0  0  0  0  0  0  0  0  0  0
   -7.7979    9.2172  -18.7894 C   0  0  0  0  0  0  0  0  0  0  0  0
   -7.5245    9.9727  -17.4705 C   0  0  2  0  0  0  0  0  0  0  0  0
   -8.3350   11.2641  -17.4463 C   0  0  0  0  0  0  0  0  0  0  0  0
   -9.1516   11.5518  -16.3421 C   0  0  0  0  0  0  0  0  0  0  0  0
   -9.9039   12.7269  -16.3004 C   0  0  0  0  0  0  0  0  0  0  0  0
   -9.8508   13.6283  -17.3609 C   0  0  0  0  0  0  0  0  0  0  0  0
   -9.0457   13.3556  -18.4644 C   0  0  0  0  0  0  0  0  0  0  0  0
   -8.2926   12.1809  -18.5086 C   0  0  0  0  0  0  0  0  0  0  0  0
   -6.0160   10.2374  -17.2322 C   0  0  2  0  0  0  0  0  0  0  0  0
   -5.7084   11.1745  -16.0595 C   0  0  0  0  0  0  0  0  0  0  0  0
   -4.3597   11.8277  -16.3770 C   0  0  0  0  0  0  0  0  0  0  0  0
   -3.9807   11.3862  -17.7931 C   0  0  2  0  0  0  0  0  0  0  0  0
   -3.2889   12.4423  -18.6723 C   0  0  0  0  0  0  0  0  0  0  0  0
   -1.7453   12.6553  -18.5050 C   0  0  0  0  0  0  0  0  0  0  0  0
   -1.0013   11.3475  -18.8439 C   0  0  0  0  0  0  0  0  0  0  0  0
   -1.3381   13.7167  -19.5586 C   0  0  0  0  0  0  0  0  0  0  0  0
   -1.3582   13.1470  -17.0746 C   0  0  1  0  0  0  0  0  0  0  0  0
   -2.1168   14.3785  -16.5788 C   0  0  0  0  0  0  0  0  0  0  0  0
   -1.5829   12.1236  -16.1034 O   0  0  0  0  0  0  0  0  0  0  0  0
   -5.3221   10.9507  -18.3975 C   0  0  0  0  0  0  0  0  0  0  0  0
  1  2  1  0
  2  3  1  0
  4  3  1  6
  4  5  1  0
  5  6  2  0
  6  7  1  0
  7  8  2  0
  8  9  1  0
  9 10  2  0
  4 11  1  0
 11 12  1  1
 12 13  1  0
 13 14  1  0
 14 15  1  6
 15 16  1  0
 16 17  1  0
 16 18  1  0
 16 19  1  0
 19 20  1  1
 19 21  1  0
 14 22  1  0
 10  5  1  0
 22 11  1  0
M  END
>  <CHROM.0>  (1) 
66.34692290,155.01503703,69.44443201,177.73319843,178.64686091,-148.52258687
-58.44376643,68.36508921,-171.54213184,177.03213914

>  <CHROM.1>  (1) 
-176.97937505,-61.46529796,127.98641684,170.64343796,82.42007827,61.17462251
-52.38759343,175.22683796,-5.65875828,11.62408708,-17.77384626,-2.88571522
0.09450337,0.51274010

>  <Name>  (1) 
denovo_401

>  <RI>  (1) 
-1.5254e+09

>  <Rbt.Current_Directory>  (1) 
/tmp/claude-0/-home-user-Rare-cancers/1af35c7f-7dc4-53ce-91d2-1631a2a10a85/scratchpad/smwork/cross/dock_8XTT-model8

>  <Rbt.Executable>  (1) 
rbdock - v25.07-alpha

>  <Rbt.Library>  (1) 
libRbt.so (25.07, Buildalpha)

>  <Rbt.Parameter_File>  (1) 
/tmp/claude-0/-home-user-Rare-cancers/1af35c7f-7dc4-53ce-91d2-1631a2a10a85/scratchpad/rdroot/share/rDock/data/scripts/dock.prm

>  <Rbt.Receptor>  (1) 
rec.prm

>  <SCORE>  (1) 
-12.9111

>  <SCORE.INTER>  (1) 
-14.4004

>  <SCORE.INTER.CONST>  (1) 
1

>  <SCORE.INTER.POLAR>  (1) 
-0.959166

>  <SCORE.INTER.REPUL>  (1) 
0

>  <SCORE.INTER.ROT>  (1) 
7

>  <SCORE.INTER.VDW>  (1) 
-23.5392

>  <SCORE.INTER.norm>  (1) 
-0.654564

>  <SCORE.INTRA>  (1) 
0.475804

>  <SCORE.INTRA.DIHEDRAL>  (1) 
-0.198157

>  <SCORE.INTRA.DIHEDRAL.0>  (1) 
3.78927

>  <SCORE.INTRA.POLAR>  (1) 
0

>  <SCORE.INTRA.POLAR.0>  (1) 
0

>  <SCORE.INTRA.REPUL>  (1) 
0

>  <SCORE.INTRA.REPUL.0>  (1) 
0

>  <SCORE.INTRA.VDW>  (1) 
0.574883

>  <SCORE.INTRA.VDW.0>  (1) 
1.02728

>  <SCORE.INTRA.norm>  (1) 
0.0216275

>  <SCORE.RESTR>  (1) 
0

>  <SCORE.RESTR.CAVITY>  (1) 
0

>  <SCORE.RESTR.norm>  (1) 
0

>  <SCORE.SYSTEM>  (1) 
1.01347

>  <SCORE.SYSTEM.CONST>  (1) 
0

>  <SCORE.SYSTEM.DIHEDRAL>  (1) 
5.87906

>  <SCORE.SYSTEM.POLAR>  (1) 
-0.238386

>  <SCORE.SYSTEM.REPUL>  (1) 
0.184216

>  <SCORE.SYSTEM.VDW>  (1) 
-2.03662

>  <SCORE.SYSTEM.norm>  (1) 
0.046067

>  <SCORE.heavy>  (1) 
22

>  <SCORE.norm>  (1) 
-0.58687

$$$$
denovo_401
     RDKit          3D

 22 23  0  0  0  0  0  0  0  0999 V2000
   -9.5254    8.3610  -19.9547 C   0  0  0  0  0  0  0  0  0  0  0  0
   -9.1444    8.8798  -18.6874 O   0  0  0  0  0  0  0  0  0  0  0  0
   -7.7820    9.3124  -18.6819 C   0  0  0  0  0  0  0  0  0  0  0  0
   -7.4610   10.0506  -17.3639 C   0  0  2  0  0  0  0  0  0  0  0  0
   -8.2824   11.3329  -17.2856 C   0  0  0  0  0  0  0  0  0  0  0  0
   -8.2202   12.2634  -18.3340 C   0  0  0  0  0  0  0  0  0  0  0  0
   -8.9617   13.4449  -18.2817 C   0  0  0  0  0  0  0  0  0  0  0  0
   -9.7733   13.7121  -17.1817 C   0  0  0  0  0  0  0  0  0  0  0  0
   -9.8441   12.7984  -16.1327 C   0  0  0  0  0  0  0  0  0  0  0  0
   -9.1032   11.6162  -16.1826 C   0  0  0  0  0  0  0  0  0  0  0  0
   -5.9465   10.3274  -17.1847 C   0  0  2  0  0  0  0  0  0  0  0  0
   -5.5981   11.2376  -16.0024 C   0  0  0  0  0  0  0  0  0  0  0  0
   -4.2719   11.9152  -16.3611 C   0  0  0  0  0  0  0  0  0  0  0  0
   -3.9507   11.5151  -17.8035 C   0  0  2  0  0  0  0  0  0  0  0  0
   -3.3099   12.6018  -18.6840 C   0  0  0  0  0  0  0  0  0  0  0  0
   -1.7735   12.8722  -18.5334 C   0  0  0  0  0  0  0  0  0  0  0  0
   -0.9853   11.5918  -18.8769 C   0  0  0  0  0  0  0  0  0  0  0  0
   -1.4169   13.9449  -19.5939 C   0  0  0  0  0  0  0  0  0  0  0  0
   -1.3900   13.3819  -17.1084 C   0  0  1  0  0  0  0  0  0  0  0  0
   -2.1908   14.5837  -16.6062 C   0  0  0  0  0  0  0  0  0  0  0  0
   -1.5633   12.3526  -16.1329 O   0  0  0  0  0  0  0  0  0  0  0  0
   -5.3124   11.0789  -18.3600 C   0  0  0  0  0  0  0  0  0  0  0  0
  1  2  1  0
  2  3  1  0
  4  3  1  6
  4  5  1  0
  5  6  2  0
  6  7  1  0
  7  8  2  0
  8  9  1  0
  9 10  2  0
  4 11  1  0
 11 12  1  1
 12 13  1  0
 13 14  1  0
 14 15  1  6
 15 16  1  0
 16 17  1  0
 16 18  1  0
 16 19  1  0
 19 20  1  1
 19 21  1  0
 14 22  1  0
 10  5  1  0
 22 11  1  0
M  END
>  <CHROM.0>  (2) 
-60.38073074,70.47066056,68.32637390,-178.31731681,-61.80789683,91.49063062
-58.18250110,-179.21110878,-71.84006516,-52.43727657

>  <CHROM.1>  (2) 
171.94123538,-64.96603047,-54.38233117,171.26689533,79.79142328,60.66029116
-52.24200154,71.74937374,-5.63420977,11.75530704,-17.71199272,-2.88165913
0.12583808,0.50819482

>  <Name>  (2) 
denovo_401

>  <RI>  (2) 
-1.5254e+09

>  <Rbt.Current_Directory>  (2) 
/tmp/claude-0/-home-user-Rare-cancers/1af35c7f-7dc4-53ce-91d2-1631a2a10a85/scratchpad/smwork/cross/dock_8XTT-model8

>  <Rbt.Executable>  (2) 
rbdock - v25.07-alpha

>  <Rbt.Library>  (2) 
libRbt.so (25.07, Buildalpha)

>  <Rbt.Parameter_File>  (2) 
/tmp/claude-0/-home-user-Rare-cancers/1af35c7f-7dc4-53ce-91d2-1631a2a10a85/scratchpad/rdroot/share/rDock/data/scripts/dock.prm

>  <Rbt.Receptor>  (2) 
rec.prm

>  <SCORE>  (2) 
-11.4555

>  <SCORE.INTER>  (2) 
-11.4504

>  <SCORE.INTER.CONST>  (2) 
1

>  <SCORE.INTER.POLAR>  (2) 
0

>  <SCORE.INTER.REPUL>  (2) 
0

>  <SCORE.INTER.ROT>  (2) 
7

>  <SCORE.INTER.VDW>  (2) 
-23.8504

>  <SCORE.INTER.norm>  (2) 
-0.520475

>  <SCORE.INTRA>  (2) 
0.584571

>  <SCORE.INTRA.DIHEDRAL>  (2) 
0.256765

>  <SCORE.INTRA.DIHEDRAL.0>  (2) 
3.78927

>  <SCORE.INTRA.POLAR>  (2) 
0

>  <SCORE.INTRA.POLAR.0>  (2) 
0

>  <SCORE.INTRA.REPUL>  (2) 
0

>  <SCORE.INTRA.REPUL.0>  (2) 
0

>  <SCORE.INTRA.VDW>  (2) 
0.456189

>  <SCORE.INTRA.VDW.0>  (2) 
1.02728

>  <SCORE.INTRA.norm>  (2) 
0.0265714

>  <SCORE.RESTR>  (2) 
0

>  <SCORE.RESTR.CAVITY>  (2) 
0

>  <SCORE.RESTR.norm>  (2) 
0

>  <SCORE.SYSTEM>  (2) 
-0.589621

>  <SCORE.SYSTEM.CONST>  (2) 
0

>  <SCORE.SYSTEM.DIHEDRAL>  (2) 
3.78182

>  <SCORE.SYSTEM.POLAR>  (2) 
-0.74965

>  <SCORE.SYSTEM.REPUL>  (2) 
0.173474

>  <SCORE.SYSTEM.VDW>  (2) 
-0.799092

>  <SCORE.SYSTEM.norm>  (2) 
-0.026801

>  <SCORE.heavy>  (2) 
22

>  <SCORE.norm>  (2) 
-0.520704

$$$$
denovo_401
     RDKit          3D

 22 23  0  0  0  0  0  0  0  0999 V2000
   -9.9245    8.3959  -20.0967 C   0  0  0  0  0  0  0  0  0  0  0  0
   -9.3474    9.4486  -19.3357 O   0  0  0  0  0  0  0  0  0  0  0  0
   -8.9516    9.0049  -18.0358 C   0  0  0  0  0  0  0  0  0  0  0  0
   -7.9237    9.9835  -17.4270 C   0  0  2  0  0  0  0  0  0  0  0  0
   -8.6306   11.2670  -17.0052 C   0  0  0  0  0  0  0  0  0  0  0  0
   -9.3125   11.3146  -15.7798 C   0  0  0  0  0  0  0  0  0  0  0  0
   -9.9687   12.4784  -15.3752 C   0  0  0  0  0  0  0  0  0  0  0  0
   -9.9528   13.6082  -16.1897 C   0  0  0  0  0  0  0  0  0  0  0  0
   -9.2811   13.5755  -17.4095 C   0  0  0  0  0  0  0  0  0  0  0  0
   -8.6244   12.4127  -17.8164 C   0  0  0  0  0  0  0  0  0  0  0  0
   -6.7325   10.2700  -18.3766 C   0  0  2  0  0  0  0  0  0  0  0  0
   -6.1281    9.0268  -19.0376 C   0  0  0  0  0  0  0  0  0  0  0  0
   -4.6687    9.3744  -19.3472 C   0  0  0  0  0  0  0  0  0  0  0  0
   -4.4024   10.7467  -18.7227 C   0  0  2  0  0  0  0  0  0  0  0  0
   -3.0136   10.9489  -18.0924 C   0  0  0  0  0  0  0  0  0  0  0  0
   -2.6134   12.3880  -17.6182 C   0  0  0  0  0  0  0  0  0  0  0  0
   -3.3988   12.7507  -16.3413 C   0  0  0  0  0  0  0  0  0  0  0  0
   -1.1108   12.3184  -17.2444 C   0  0  0  0  0  0  0  0  0  0  0  0
   -2.8395   13.4690  -18.7220 C   0  0  1  0  0  0  0  0  0  0  0  0
   -2.4061   14.8866  -18.3474 C   0  0  0  0  0  0  0  0  0  0  0  0
   -2.1282   13.1378  -19.9158 O   0  0  0  0  0  0  0  0  0  0  0  0
   -5.5144   10.8785  -17.6737 C   0  0  0  0  0  0  0  0  0  0  0  0
  1  2  1  0
  2  3  1  0
  4  3  1  6
  4  5  1  0
  5  6  2  0
  6  7  1  0
  7  8  2  0
  8  9  1  0
  9 10  2  0
  4 11  1  0
 11 12  1  1
 12 13  1  0
 13 14  1  0
 14 15  1  1
 15 16  1  0
 16 17  1  0
 16 18  1  0
 16 19  1  0
 19 20  1  1
 19 21  1  0
 14 22  1  0
 10  5  1  0
 22 11  1  0
M  END
>  <CHROM.0>  (3) 
67.71093505,64.45304707,177.57180516,-62.03268665,177.57437943,-146.51985147
-178.72692689,-60.69033879,-72.49718411,-54.02964315

>  <CHROM.1>  (3) 
160.68452194,73.33507828,81.34928859,-45.88586672,171.63547035,72.47600175
-177.19942763,66.81825619,-6.14116695,11.42852645,-17.96205437,-2.94168143
0.21433639,0.54116960

>  <Name>  (3) 
denovo_401

>  <RI>  (3) 
-1.5254e+09

>  <Rbt.Current_Directory>  (3) 
/tmp/claude-0/-home-user-Rare-cancers/1af35c7f-7dc4-53ce-91d2-1631a2a10a85/scratchpad/smwork/cross/dock_8XTT-model8

>  <Rbt.Executable>  (3) 
rbdock - v25.07-alpha

>  <Rbt.Library>  (3) 
libRbt.so (25.07, Buildalpha)

>  <Rbt.Parameter_File>  (3) 
/tmp/claude-0/-home-user-Rare-cancers/1af35c7f-7dc4-53ce-91d2-1631a2a10a85/scratchpad/rdroot/share/rDock/data/scripts/dock.prm

>  <Rbt.Receptor>  (3) 
rec.prm

>  <SCORE>  (3) 
-11.3589

>  <SCORE.INTER>  (3) 
-9.06046

>  <SCORE.INTER.CONST>  (3) 
1

>  <SCORE.INTER.POLAR>  (3) 
0

>  <SCORE.INTER.REPUL>  (3) 
0

>  <SCORE.INTER.ROT>  (3) 
7

>  <SCORE.INTER.VDW>  (3) 
-21.4605

>  <SCORE.INTER.norm>  (3) 
-0.411839

>  <SCORE.INTRA>  (3) 
1.65368

>  <SCORE.INTRA.DIHEDRAL>  (3) 
1.33505

>  <SCORE.INTRA.DIHEDRAL.0>  (3) 
3.78927

>  <SCORE.INTRA.POLAR>  (3) 
0

>  <SCORE.INTRA.POLAR.0>  (3) 
0

>  <SCORE.INTRA.REPUL>  (3) 
0

>  <SCORE.INTRA.REPUL.0>  (3) 
0

>  <SCORE.INTRA.VDW>  (3) 
0.986155

>  <SCORE.INTRA.VDW.0>  (3) 
1.02728

>  <SCORE.INTRA.norm>  (3) 
0.0751673

>  <SCORE.RESTR>  (3) 
0.00244644

>  <SCORE.RESTR.CAVITY>  (3) 
0.00244644

>  <SCORE.RESTR.norm>  (3) 
0.000111202

>  <SCORE.SYSTEM>  (3) 
-3.95457

>  <SCORE.SYSTEM.CONST>  (3) 
0

>  <SCORE.SYSTEM.DIHEDRAL>  (3) 
3.35058

>  <SCORE.SYSTEM.POLAR>  (3) 
-0.591382

>  <SCORE.SYSTEM.REPUL>  (3) 
0.0178226

>  <SCORE.SYSTEM.VDW>  (3) 
-3.70828

>  <SCORE.SYSTEM.norm>  (3) 
-0.179753

>  <SCORE.heavy>  (3) 
22

>  <SCORE.norm>  (3) 
-0.516314

$$$$
denovo_401
     RDKit          3D

 22 23  0  0  0  0  0  0  0  0999 V2000
   -9.4963    7.9710  -20.1157 C   0  0  0  0  0  0  0  0  0  0  0  0
   -8.7330    8.4137  -19.0012 O   0  0  0  0  0  0  0  0  0  0  0  0
   -8.9260    9.8075  -18.7493 C   0  0  0  0  0  0  0  0  0  0  0  0
   -8.3621   10.1827  -17.3614 C   0  0  2  0  0  0  0  0  0  0  0  0
   -8.9662   11.5072  -16.9077 C   0  0  0  0  0  0  0  0  0  0  0  0
   -8.8789   12.6328  -17.7409 C   0  0  0  0  0  0  0  0  0  0  0  0
   -9.4227   13.8558  -17.3443 C   0  0  0  0  0  0  0  0  0  0  0  0
  -10.0591   13.9699  -16.1106 C   0  0  0  0  0  0  0  0  0  0  0  0
  -10.1523   12.8615  -15.2722 C   0  0  0  0  0  0  0  0  0  0  0  0
   -9.6090   11.6375  -15.6665 C   0  0  0  0  0  0  0  0  0  0  0  0
   -6.8128   10.2191  -17.3330 C   0  0  2  0  0  0  0  0  0  0  0  0
   -6.2122   10.9600  -16.1338 C   0  0  0  0  0  0  0  0  0  0  0  0
   -4.8398   11.4665  -16.5882 C   0  0  0  0  0  0  0  0  0  0  0  0
   -4.7293   11.1537  -18.0828 C   0  0  2  0  0  0  0  0  0  0  0  0
   -4.0194   12.2095  -18.9478 C   0  0  0  0  0  0  0  0  0  0  0  0
   -2.4786   12.4187  -18.7525 C   0  0  0  0  0  0  0  0  0  0  0  0
   -2.1993   12.9089  -17.3170 C   0  0  0  0  0  0  0  0  0  0  0  0
   -1.8287   11.0202  -18.9085 C   0  0  0  0  0  0  0  0  0  0  0  0
   -1.8699   13.4096  -19.7943 C   0  0  1  0  0  0  0  0  0  0  0  0
   -2.3877   14.8458  -19.7107 C   0  0  0  0  0  0  0  0  0  0  0  0
   -0.4503   13.4896  -19.6556 O   0  0  0  0  0  0  0  0  0  0  0  0
   -6.1906   10.9717  -18.5139 C   0  0  0  0  0  0  0  0  0  0  0  0
  1  2  1  0
  2  3  1  0
  4  3  1  6
  4  5  1  0
  5  6  2  0
  6  7  1  0
  7  8  2  0
  8  9  1  0
  9 10  2  0
  4 11  1  0
 11 12  1  1
 12 13  1  0
 13 14  1  0
 14 15  1  6
 15 16  1  0
 16 17  1  0
 16 18  1  0
 16 19  1  0
 19 20  1  1
 19 21  1  0
 14 22  1  0
 10  5  1  0
 22 11  1  0
M  END
>  <CHROM.0>  (4) 
64.02777924,66.77540980,72.45709312,-63.39107505,-178.94818492,95.85184677
-178.78741125,-58.54853362,-175.34853026,-177.83929644

>  <CHROM.1>  (4) 
166.70442619,-161.22930123,-53.98853750,163.26529576,68.59822687,-62.58891402
64.03324997,-62.61990331,-6.10001831,11.70206688,-17.96782189,-3.02326821
0.30840685,0.47992907

>  <Name>  (4) 
denovo_401

>  <RI>  (4) 
-1.5254e+09

>  <Rbt.Current_Directory>  (4) 
/tmp/claude-0/-home-user-Rare-cancers/1af35c7f-7dc4-53ce-91d2-1631a2a10a85/scratchpad/smwork/cross/dock_8XTT-model8

>  <Rbt.Executable>  (4) 
rbdock - v25.07-alpha

>  <Rbt.Library>  (4) 
libRbt.so (25.07, Buildalpha)

>  <Rbt.Parameter_File>  (4) 
/tmp/claude-0/-home-user-Rare-cancers/1af35c7f-7dc4-53ce-91d2-1631a2a10a85/scratchpad/rdroot/share/rDock/data/scripts/dock.prm

>  <Rbt.Receptor>  (4) 
rec.prm

>  <SCORE>  (4) 
-10.7705

>  <SCORE.INTER>  (4) 
-10.0556

>  <SCORE.INTER.CONST>  (4) 
1

>  <SCORE.INTER.POLAR>  (4) 
-0.658782

>  <SCORE.INTER.REPUL>  (4) 
0

>  <SCORE.INTER.ROT>  (4) 
7

>  <SCORE.INTER.VDW>  (4) 
-20.2157

>  <SCORE.INTER.norm>  (4) 
-0.457073

>  <SCORE.INTRA>  (4) 
3.47873

>  <SCORE.INTRA.DIHEDRAL>  (4) 
0.722363

>  <SCORE.INTRA.DIHEDRAL.0>  (4) 
3.78927

>  <SCORE.INTRA.POLAR>  (4) 
0

>  <SCORE.INTRA.POLAR.0>  (4) 
0

>  <SCORE.INTRA.REPUL>  (4) 
0

>  <SCORE.INTRA.REPUL.0>  (4) 
0

>  <SCORE.INTRA.VDW>  (4) 
3.11755

>  <SCORE.INTRA.VDW.0>  (4) 
1.02728

>  <SCORE.INTRA.norm>  (4) 
0.158124

>  <SCORE.RESTR>  (4) 
0.108929

>  <SCORE.RESTR.CAVITY>  (4) 
0.108929

>  <SCORE.RESTR.norm>  (4) 
0.00495133

>  <SCORE.SYSTEM>  (4) 
-4.30253

>  <SCORE.SYSTEM.CONST>  (4) 
0

>  <SCORE.SYSTEM.DIHEDRAL>  (4) 
3.53313

>  <SCORE.SYSTEM.POLAR>  (4) 
-0.413195

>  <SCORE.SYSTEM.VDW>  (4) 
-4.66423

>  <SCORE.SYSTEM.norm>  (4) 
-0.195569

>  <SCORE.heavy>  (4) 
22

>  <SCORE.norm>  (4) 
-0.489566

$$$$
denovo_401
     RDKit          3D

 22 23  0  0  0  0  0  0  0  0999 V2000
  -10.2768    7.7994  -20.4086 C   0  0  0  0  0  0  0  0  0  0  0  0
   -9.6062    8.4148  -19.3169 O   0  0  0  0  0  0  0  0  0  0  0  0
   -8.6222    9.3514  -19.7618 C   0  0  0  0  0  0  0  0  0  0  0  0
   -7.7990    9.8716  -18.5632 C   0  0  2  0  0  0  0  0  0  0  0  0
   -8.6278   10.8808  -17.7761 C   0  0  0  0  0  0  0  0  0  0  0  0
   -8.8957   12.1423  -18.3290 C   0  0  0  0  0  0  0  0  0  0  0  0
   -9.6500   13.0824  -17.6248 C   0  0  0  0  0  0  0  0  0  0  0  0
  -10.1450   12.7747  -16.3598 C   0  0  0  0  0  0  0  0  0  0  0  0
   -9.8861   11.5269  -15.7974 C   0  0  0  0  0  0  0  0  0  0  0  0
   -9.1317   10.5852  -16.4996 C   0  0  0  0  0  0  0  0  0  0  0  0
   -6.4288   10.4599  -18.9864 C   0  0  2  0  0  0  0  0  0  0  0  0
   -5.3205    9.4208  -19.1855 C   0  0  0  0  0  0  0  0  0  0  0  0
   -3.9988   10.1512  -18.9284 C   0  0  0  0  0  0  0  0  0  0  0  0
   -4.3616   11.5531  -18.4313 C   0  0  2  0  0  0  0  0  0  0  0  0
   -3.4602   12.1386  -17.3306 C   0  0  0  0  0  0  0  0  0  0  0  0
   -2.0140   12.6004  -17.7196 C   0  0  0  0  0  0  0  0  0  0  0  0
   -1.1838   11.3814  -18.1707 C   0  0  0  0  0  0  0  0  0  0  0  0
   -2.1739   13.5409  -18.9412 C   0  0  0  0  0  0  0  0  0  0  0  0
   -1.2905   13.3522  -16.5581 C   0  0  1  0  0  0  0  0  0  0  0  0
   -1.9266   14.6788  -16.1415 C   0  0  0  0  0  0  0  0  0  0  0  0
   -1.2419   12.5467  -15.3792 O   0  0  0  0  0  0  0  0  0  0  0  0
   -5.8060   11.3901  -17.9400 C   0  0  0  0  0  0  0  0  0  0  0  0
  1  2  1  0
  2  3  1  0
  4  3  1  6
  4  5  1  0
  5  6  2  0
  6  7  1  0
  7  8  2  0
  8  9  1  0
  9 10  2  0
  4 11  1  0
 11 12  1  1
 12 13  1  0
 13 14  1  0
 14 15  1  1
 15 16  1  0
 16 17  1  0
 16 18  1  0
 16 19  1  0
 19 20  1  1
 19 21  1  0
 14 22  1  0
 10  5  1  0
 22 11  1  0
M  END
>  <CHROM.0>  (5) 
-59.07333835,156.43778452,69.20708932,-66.32453453,-57.29685506,85.86926891
43.54567707,-61.41543386,-73.90513530,67.30609152

>  <CHROM.1>  (5) 
-173.15850553,-75.82036158,-70.73389502,-82.77680238,72.33976346,-64.66550198
-64.40606555,67.72297238,-5.90387554,11.32846594,-17.92310329,-2.77797520
0.09968243,0.70084190

>  <Name>  (5) 
denovo_401

>  <RI>  (5) 
-1.5254e+09

>  <Rbt.Current_Directory>  (5) 
/tmp/claude-0/-home-user-Rare-cancers/1af35c7f-7dc4-53ce-91d2-1631a2a10a85/scratchpad/smwork/cross/dock_8XTT-model8

>  <Rbt.Executable>  (5) 
rbdock - v25.07-alpha

>  <Rbt.Library>  (5) 
libRbt.so (25.07, Buildalpha)

>  <Rbt.Parameter_File>  (5) 
/tmp/claude-0/-home-user-Rare-cancers/1af35c7f-7dc4-53ce-91d2-1631a2a10a85/scratchpad/rdroot/share/rDock/data/scripts/dock.prm

>  <Rbt.Receptor>  (5) 
rec.prm

>  <SCORE>  (5) 
-10.6374

>  <SCORE.INTER>  (5) 
-13.6337

>  <SCORE.INTER.CONST>  (5) 
1

>  <SCORE.INTER.POLAR>  (5) 
-1.15826

>  <SCORE.INTER.REPUL>  (5) 
0

>  <SCORE.INTER.ROT>  (5) 
7

>  <SCORE.INTER.VDW>  (5) 
-22.0957

>  <SCORE.INTER.norm>  (5) 
-0.619715

>  <SCORE.INTRA>  (5) 
1.92274

>  <SCORE.INTRA.DIHEDRAL>  (5) 
1.34928

>  <SCORE.INTRA.DIHEDRAL.0>  (5) 
3.78927

>  <SCORE.INTRA.POLAR>  (5) 
0

>  <SCORE.INTRA.POLAR.0>  (5) 
0

>  <SCORE.INTRA.REPUL>  (5) 
0

>  <SCORE.INTRA.REPUL.0>  (5) 
0

>  <SCORE.INTRA.VDW>  (5) 
1.2481

>  <SCORE.INTRA.VDW.0>  (5) 
1.02728

>  <SCORE.INTRA.norm>  (5) 
0.0873974

>  <SCORE.RESTR>  (5) 
0.305754

>  <SCORE.RESTR.CAVITY>  (5) 
0.305754

>  <SCORE.RESTR.norm>  (5) 
0.0138979

>  <SCORE.SYSTEM>  (5) 
0.767791

>  <SCORE.SYSTEM.CONST>  (5) 
0

>  <SCORE.SYSTEM.DIHEDRAL>  (5) 
6.87827

>  <SCORE.SYSTEM.POLAR>  (5) 
-1.38835

>  <SCORE.SYSTEM.REPUL>  (5) 
0.0206441

>  <SCORE.SYSTEM.VDW>  (5) 
1.94581

>  <SCORE.SYSTEM.norm>  (5) 
0.0348996

>  <SCORE.heavy>  (5) 
22

>  <SCORE.norm>  (5) 
-0.48352

$$$$
denovo_401
     RDKit          3D

 22 23  0  0  0  0  0  0  0  0999 V2000
   -0.5824   10.4167  -20.4673 C   0  0  0  0  0  0  0  0  0  0  0  0
   -0.2670   10.8608  -19.1544 O   0  0  0  0  0  0  0  0  0  0  0  0
   -1.3421   10.6211  -18.2434 C   0  0  0  0  0  0  0  0  0  0  0  0
   -2.5380   11.5406  -18.5742 C   0  0  2  0  0  0  0  0  0  0  0  0
   -2.1630   12.9891  -18.2800 C   0  0  0  0  0  0  0  0  0  0  0  0
   -2.0501   13.4215  -16.9499 C   0  0  0  0  0  0  0  0  0  0  0  0
   -1.7106   14.7437  -16.6578 C   0  0  0  0  0  0  0  0  0  0  0  0
   -1.4808   15.6501  -17.6901 C   0  0  0  0  0  0  0  0  0  0  0  0
   -1.5906   15.2357  -19.0154 C   0  0  0  0  0  0  0  0  0  0  0  0
   -1.9303   13.9140  -19.3100 C   0  0  0  0  0  0  0  0  0  0  0  0
   -3.8371   11.1235  -17.8388 C   0  0  2  0  0  0  0  0  0  0  0  0
   -4.3569    9.7282  -18.2003 C   0  0  0  0  0  0  0  0  0  0  0  0
   -5.8686    9.7585  -17.9547 C   0  0  0  0  0  0  0  0  0  0  0  0
   -6.2281   11.2061  -17.6091 C   0  0  2  0  0  0  0  0  0  0  0  0
   -7.5660   11.7253  -18.1635 C   0  0  0  0  0  0  0  0  0  0  0  0
   -8.8828   11.3559  -17.3983 C   0  0  0  0  0  0  0  0  0  0  0  0
  -10.0857   12.0473  -18.0720 C   0  0  0  0  0  0  0  0  0  0  0  0
   -9.0647    9.8256  -17.5635 C   0  0  0  0  0  0  0  0  0  0  0  0
   -8.8209   11.7258  -15.8827 C   0  0  1  0  0  0  0  0  0  0  0  0
   -8.7906   13.2234  -15.5757 C   0  0  0  0  0  0  0  0  0  0  0  0
   -9.9479   11.1984  -15.1808 O   0  0  0  0  0  0  0  0  0  0  0  0
   -5.0450   12.0065  -18.1693 C   0  0  0  0  0  0  0  0  0  0  0  0
  1  2  1  0
  2  3  1  0
  4  3  1  1
  4  5  1  0
  5  6  2  0
  6  7  1  0
  7  8  2  0
  8  9  1  0
  9 10  2  0
  4 11  1  0
 11 12  1  6
 12 13  1  0
 13 14  1  0
 14 15  1  6
 15 16  1  0
 16 17  1  0
 16 18  1  0
 16 19  1  0
 19 20  1  6
 19 21  1  0
 14 22  1  0
 10  5  1  0
 22 11  1  0
M  END
>  <CHROM.0>  (6) 
60.82272961,66.02264782,75.44964447,-64.36762398,-59.92927008,89.93918567
-179.07840533,-60.44096261,-173.91353215,64.73400870

>  <CHROM.1>  (6) 
-69.06869867,-67.61868963,-72.42232358,-62.21617065,80.86400736,176.51044733
67.89036070,-54.75783926,-4.82122666,11.95496564,-17.80406679,-0.07419974
-0.27767033,-2.80761444

>  <Name>  (6) 
denovo_401

>  <RI>  (6) 
-1.5254e+09

>  <Rbt.Current_Directory>  (6) 
/tmp/claude-0/-home-user-Rare-cancers/1af35c7f-7dc4-53ce-91d2-1631a2a10a85/scratchpad/smwork/cross/dock_8XTT-model8

>  <Rbt.Executable>  (6) 
rbdock - v25.07-alpha

>  <Rbt.Library>  (6) 
libRbt.so (25.07, Buildalpha)

>  <Rbt.Parameter_File>  (6) 
/tmp/claude-0/-home-user-Rare-cancers/1af35c7f-7dc4-53ce-91d2-1631a2a10a85/scratchpad/rdroot/share/rDock/data/scripts/dock.prm

>  <Rbt.Receptor>  (6) 
rec.prm

>  <SCORE>  (6) 
-10.4166

>  <SCORE.INTER>  (6) 
-7.25784

>  <SCORE.INTER.CONST>  (6) 
1

>  <SCORE.INTER.POLAR>  (6) 
-0.425301

>  <SCORE.INTER.REPUL>  (6) 
0.084985

>  <SCORE.INTER.ROT>  (6) 
7

>  <SCORE.INTER.VDW>  (6) 
-18.6367

>  <SCORE.INTER.norm>  (6) 
-0.329902

>  <SCORE.INTRA>  (6) 
1.87002

>  <SCORE.INTRA.DIHEDRAL>  (6) 
-0.0126619

>  <SCORE.INTRA.DIHEDRAL.0>  (6) 
3.78927

>  <SCORE.INTRA.POLAR>  (6) 
0

>  <SCORE.INTRA.POLAR.0>  (6) 
0

>  <SCORE.INTRA.REPUL>  (6) 
0

>  <SCORE.INTRA.REPUL.0>  (6) 
0

>  <SCORE.INTRA.VDW>  (6) 
1.87635

>  <SCORE.INTRA.VDW.0>  (6) 
1.02728

>  <SCORE.INTRA.norm>  (6) 
0.0850009

>  <SCORE.RESTR>  (6) 
0

>  <SCORE.RESTR.CAVITY>  (6) 
0

>  <SCORE.RESTR.norm>  (6) 
0

>  <SCORE.SYSTEM>  (6) 
-5.02879

>  <SCORE.SYSTEM.CONST>  (6) 
0

>  <SCORE.SYSTEM.DIHEDRAL>  (6) 
3.45778

>  <SCORE.SYSTEM.POLAR>  (6) 
-1.02089

>  <SCORE.SYSTEM.VDW>  (6) 
-3.28667

>  <SCORE.SYSTEM.norm>  (6) 
-0.228581

>  <SCORE.heavy>  (6) 
22

>  <SCORE.norm>  (6) 
-0.473483

$$$$
denovo_401
     RDKit          3D

 22 23  0  0  0  0  0  0  0  0999 V2000
   -0.5359   10.5305  -20.5199 C   0  0  0  0  0  0  0  0  0  0  0  0
   -0.3145   10.8215  -19.1463 O   0  0  0  0  0  0  0  0  0  0  0  0
   -1.4324   10.4434  -18.3396 C   0  0  0  0  0  0  0  0  0  0  0  0
   -2.6082   11.4192  -18.5647 C   0  0  2  0  0  0  0  0  0  0  0  0
   -2.2197   12.8075  -18.0680 C   0  0  0  0  0  0  0  0  0  0  0  0
   -2.1064   13.8662  -18.9818 C   0  0  0  0  0  0  0  0  0  0  0  0
   -1.7494   15.1446  -18.5493 C   0  0  0  0  0  0  0  0  0  0  0  0
   -1.5002   15.3809  -17.1994 C   0  0  0  0  0  0  0  0  0  0  0  0
   -1.6074   14.3394  -16.2808 C   0  0  0  0  0  0  0  0  0  0  0  0
   -1.9640   13.0601  -16.7110 C   0  0  0  0  0  0  0  0  0  0  0  0
   -3.9284   10.9272  -17.9184 C   0  0  2  0  0  0  0  0  0  0  0  0
   -4.5159    9.6603  -18.5488 C   0  0  0  0  0  0  0  0  0  0  0  0
   -6.0249    9.7151  -18.2909 C   0  0  0  0  0  0  0  0  0  0  0  0
   -6.3129   11.0796  -17.6590 C   0  0  2  0  0  0  0  0  0  0  0  0
   -7.6218   11.7648  -18.0880 C   0  0  0  0  0  0  0  0  0  0  0  0
   -8.9593   11.3043  -17.4134 C   0  0  0  0  0  0  0  0  0  0  0  0
  -10.1475   12.0496  -18.0549 C   0  0  0  0  0  0  0  0  0  0  0  0
   -9.1138    9.7976  -17.7427 C   0  0  0  0  0  0  0  0  0  0  0  0
   -8.9556   11.5151  -15.8663 C   0  0  1  0  0  0  0  0  0  0  0  0
   -8.6586   12.9411  -15.4013 C   0  0  0  0  0  0  0  0  0  0  0  0
  -10.2199   11.1669  -15.2994 O   0  0  0  0  0  0  0  0  0  0  0  0
   -5.0900   11.9170  -18.0558 C   0  0  0  0  0  0  0  0  0  0  0  0
  1  2  1  0
  2  3  1  0
  4  3  1  1
  4  5  1  0
  5  6  2  0
  6  7  1  0
  7  8  2  0
  8  9  1  0
  9 10  2  0
  4 11  1  0
 11 12  1  6
 12 13  1  0
 13 14  1  0
 14 15  1  6
 15 16  1  0
 16 17  1  0
 16 18  1  0
 16 19  1  0
 19 20  1  6
 19 21  1  0
 14 22  1  0
 10  5  1  0
 22 11  1  0
M  END
>  <CHROM.0>  (7) 
63.61605944,65.87675965,-178.18688634,63.31519662,-61.25616196,151.28858193
-30.86920773,-176.89353504,-72.46487000,65.56039112

>  <CHROM.1>  (7) 
-72.79888327,-65.13963476,114.89980798,-66.64877170,80.24659092,-176.21065529
55.41884574,66.14787629,-4.88527800,11.83434360,-17.75380873,-0.04132335
-0.25661630,-2.67666500

>  <Name>  (7) 
denovo_401

>  <RI>  (7) 
-1.5254e+09

>  <Rbt.Current_Directory>  (7) 
/tmp/claude-0/-home-user-Rare-cancers/1af35c7f-7dc4-53ce-91d2-1631a2a10a85/scratchpad/smwork/cross/dock_8XTT-model8

>  <Rbt.Executable>  (7) 
rbdock - v25.07-alpha

>  <Rbt.Library>  (7) 
libRbt.so (25.07, Buildalpha)

>  <Rbt.Parameter_File>  (7) 
/tmp/claude-0/-home-user-Rare-cancers/1af35c7f-7dc4-53ce-91d2-1631a2a10a85/scratchpad/rdroot/share/rDock/data/scripts/dock.prm

>  <Rbt.Receptor>  (7) 
rec.prm

>  <SCORE>  (7) 
-10.2319

>  <SCORE.INTER>  (7) 
-10.1672

>  <SCORE.INTER.CONST>  (7) 
1

>  <SCORE.INTER.POLAR>  (7) 
-1.28078

>  <SCORE.INTER.REPUL>  (7) 
0.0580014

>  <SCORE.INTER.ROT>  (7) 
7

>  <SCORE.INTER.VDW>  (7) 
-18.5025

>  <SCORE.INTER.norm>  (7) 
-0.462143

>  <SCORE.INTRA>  (7) 
1.05901

>  <SCORE.INTRA.DIHEDRAL>  (7) 
0.213606

>  <SCORE.INTRA.DIHEDRAL.0>  (7) 
3.78927

>  <SCORE.INTRA.POLAR>  (7) 
0

>  <SCORE.INTRA.POLAR.0>  (7) 
0

>  <SCORE.INTRA.REPUL>  (7) 
0

>  <SCORE.INTRA.REPUL.0>  (7) 
0

>  <SCORE.INTRA.VDW>  (7) 
0.952203

>  <SCORE.INTRA.VDW.0>  (7) 
1.02728

>  <SCORE.INTRA.norm>  (7) 
0.0481366

>  <SCORE.RESTR>  (7) 
0

>  <SCORE.RESTR.CAVITY>  (7) 
0

>  <SCORE.RESTR.norm>  (7) 
0

>  <SCORE.SYSTEM>  (7) 
-1.12373

>  <SCORE.SYSTEM.CONST>  (7) 
0

>  <SCORE.SYSTEM.DIHEDRAL>  (7) 
6.37255

>  <SCORE.SYSTEM.POLAR>  (7) 
-1.43224

>  <SCORE.SYSTEM.REPUL>  (7) 
0.0876912

>  <SCORE.SYSTEM.VDW>  (7) 
0.121165

>  <SCORE.SYSTEM.norm>  (7) 
-0.0510784

>  <SCORE.heavy>  (7) 
22

>  <SCORE.norm>  (7) 
-0.465085

$$$$
denovo_401
     RDKit          3D

 22 23  0  0  0  0  0  0  0  0999 V2000
    0.5035    9.9165  -19.6208 C   0  0  0  0  0  0  0  0  0  0  0  0
   -0.4777   10.9379  -19.5014 O   0  0  0  0  0  0  0  0  0  0  0  0
   -1.4853   10.5932  -18.5477 C   0  0  0  0  0  0  0  0  0  0  0  0
   -2.6635   11.5880  -18.6319 C   0  0  2  0  0  0  0  0  0  0  0  0
   -2.2518   12.9183  -18.0106 C   0  0  0  0  0  0  0  0  0  0  0  0
   -2.0588   13.0077  -16.6237 C   0  0  0  0  0  0  0  0  0  0  0  0
   -1.6844   14.2162  -16.0337 C   0  0  0  0  0  0  0  0  0  0  0  0
   -1.4994   15.3501  -16.8212 C   0  0  0  0  0  0  0  0  0  0  0  0
   -1.6888   15.2770  -18.1992 C   0  0  0  0  0  0  0  0  0  0  0  0
   -2.0635   14.0696  -18.7915 C   0  0  0  0  0  0  0  0  0  0  0  0
   -3.9631   11.0344  -17.9937 C   0  0  2  0  0  0  0  0  0  0  0  0
   -4.5130    9.7682  -18.6585 C   0  0  0  0  0  0  0  0  0  0  0  0
   -6.0214    9.7661  -18.3914 C   0  0  0  0  0  0  0  0  0  0  0  0
   -6.3497   11.1012  -17.7178 C   0  0  2  0  0  0  0  0  0  0  0  0
   -7.6827   11.7558  -18.1195 C   0  0  0  0  0  0  0  0  0  0  0  0
   -8.9893   11.2946  -17.3872 C   0  0  0  0  0  0  0  0  0  0  0  0
  -10.2107   11.9993  -18.0121 C   0  0  0  0  0  0  0  0  0  0  0  0
   -9.1277    9.7759  -17.6642 C   0  0  0  0  0  0  0  0  0  0  0  0
   -8.9392   11.5543  -15.8484 C   0  0  1  0  0  0  0  0  0  0  0  0
   -8.6455   12.9976  -15.4380 C   0  0  0  0  0  0  0  0  0  0  0  0
  -10.1804   11.2097  -15.2306 O   0  0  0  0  0  0  0  0  0  0  0  0
   -5.1570   11.9895  -18.0958 C   0  0  0  0  0  0  0  0  0  0  0  0
  1  2  1  0
  2  3  1  0
  4  3  1  1
  4  5  1  0
  5  6  2  0
  6  7  1  0
  7  8  2  0
  8  9  1  0
  9 10  2  0
  4 11  1  0
 11 12  1  6
 12 13  1  0
 13 14  1  0
 14 15  1  6
 15 16  1  0
 16 17  1  0
 16 18  1  0
 16 19  1  0
 19 20  1  6
 19 21  1  0
 14 22  1  0
 10  5  1  0
 22 11  1  0
M  END
>  <CHROM.0>  (8) 
-57.31189027,64.35087564,117.11935600,-63.88119448,-179.53594014,88.53011010
-57.84561196,-60.40893739,-175.99238332,-54.15369995

>  <CHROM.1>  (8) 
-169.46709679,-73.96068082,-69.76367359,-61.75831009,84.01465224,-175.90543110
55.12020836,61.95082176,-4.86165028,11.85284692,-17.69367414,-0.03244686
-0.23268249,-2.67165685

>  <Name>  (8) 
denovo_401

>  <RI>  (8) 
-1.5254e+09

>  <Rbt.Current_Directory>  (8) 
/tmp/claude-0/-home-user-Rare-cancers/1af35c7f-7dc4-53ce-91d2-1631a2a10a85/scratchpad/smwork/cross/dock_8XTT-model8

>  <Rbt.Executable>  (8) 
rbdock - v25.07-alpha

>  <Rbt.Library>  (8) 
libRbt.so (25.07, Buildalpha)

>  <Rbt.Parameter_File>  (8) 
/tmp/claude-0/-home-user-Rare-cancers/1af35c7f-7dc4-53ce-91d2-1631a2a10a85/scratchpad/rdroot/share/rDock/data/scripts/dock.prm

>  <Rbt.Receptor>  (8) 
rec.prm

>  <SCORE>  (8) 
-10.0858

>  <SCORE.INTER>  (8) 
-9.93526

>  <SCORE.INTER.CONST>  (8) 
1

>  <SCORE.INTER.POLAR>  (8) 
-1.33612

>  <SCORE.INTER.REPUL>  (8) 
0.00512722

>  <SCORE.INTER.ROT>  (8) 
7

>  <SCORE.INTER.VDW>  (8) 
-17.8181

>  <SCORE.INTER.norm>  (8) 
-0.451603

>  <SCORE.INTRA>  (8) 
0.438983

>  <SCORE.INTRA.DIHEDRAL>  (8) 
0.809098

>  <SCORE.INTRA.DIHEDRAL.0>  (8) 
3.78927

>  <SCORE.INTRA.POLAR>  (8) 
0

>  <SCORE.INTRA.POLAR.0>  (8) 
0

>  <SCORE.INTRA.REPUL>  (8) 
0

>  <SCORE.INTRA.REPUL.0>  (8) 
0

>  <SCORE.INTRA.VDW>  (8) 
0.0344339

>  <SCORE.INTRA.VDW.0>  (8) 
1.02728

>  <SCORE.INTRA.norm>  (8) 
0.0199538

>  <SCORE.RESTR>  (8) 
0.0238421

>  <SCORE.RESTR.CAVITY>  (8) 
0.0238421

>  <SCORE.RESTR.norm>  (8) 
0.00108373

>  <SCORE.SYSTEM>  (8) 
-0.613403

>  <SCORE.SYSTEM.CONST>  (8) 
0

>  <SCORE.SYSTEM.DIHEDRAL>  (8) 
9.25498

>  <SCORE.SYSTEM.POLAR>  (8) 
-1.07612

>  <SCORE.SYSTEM.REPUL>  (8) 
0.0191535

>  <SCORE.SYSTEM.VDW>  (8) 
-1.67786

>  <SCORE.SYSTEM.norm>  (8) 
-0.0278819

>  <SCORE.heavy>  (8) 
22

>  <SCORE.norm>  (8) 
-0.458447

$$$$
denovo_401
     RDKit          3D

 22 23  0  0  0  0  0  0  0  0999 V2000
   -2.2562   14.9074  -17.9471 C   0  0  0  0  0  0  0  0  0  0  0  0
   -2.5712   13.5230  -18.0143 O   0  0  0  0  0  0  0  0  0  0  0  0
   -1.9806   12.7942  -16.9357 C   0  0  0  0  0  0  0  0  0  0  0  0
   -2.2571   11.2833  -17.0969 C   0  0  2  0  0  0  0  0  0  0  0  0
   -1.8914   10.8470  -18.5115 C   0  0  0  0  0  0  0  0  0  0  0  0
   -2.8818   10.8069  -19.5046 C   0  0  0  0  0  0  0  0  0  0  0  0
   -2.5696   10.4081  -20.8054 C   0  0  0  0  0  0  0  0  0  0  0  0
   -1.2651   10.0434  -21.1300 C   0  0  0  0  0  0  0  0  0  0  0  0
   -0.2715   10.0770  -20.1543 C   0  0  0  0  0  0  0  0  0  0  0  0
   -0.5814   10.4753  -18.8527 C   0  0  0  0  0  0  0  0  0  0  0  0
   -3.7146   10.8982  -16.7364 C   0  0  2  0  0  0  0  0  0  0  0  0
   -4.1385    9.4990  -17.1949 C   0  0  0  0  0  0  0  0  0  0  0  0
   -5.6590    9.5504  -17.3737 C   0  0  0  0  0  0  0  0  0  0  0  0
   -6.0755   11.0100  -17.1728 C   0  0  2  0  0  0  0  0  0  0  0  0
   -7.2017   11.5273  -18.0842 C   0  0  0  0  0  0  0  0  0  0  0  0
   -8.6819   11.1664  -17.7171 C   0  0  0  0  0  0  0  0  0  0  0  0
   -9.6391   11.7770  -18.7611 C   0  0  0  0  0  0  0  0  0  0  0  0
   -8.7902    9.6238  -17.8226 C   0  0  0  0  0  0  0  0  0  0  0  0
   -9.0751   11.6322  -16.2797 C   0  0  1  0  0  0  0  0  0  0  0  0
   -9.2221   13.1434  -16.0994 C   0  0  0  0  0  0  0  0  0  0  0  0
  -10.3218   11.0606  -15.8797 O   0  0  0  0  0  0  0  0  0  0  0  0
   -4.7712   11.7839  -17.4052 C   0  0  0  0  0  0  0  0  0  0  0  0
  1  2  1  0
  2  3  1  0
  4  3  1  6
  4  5  1  0
  5  6  2  0
  6  7  1  0
  7  8  2  0
  8  9  1  0
  9 10  2  0
  4 11  1  0
 11 12  1  6
 12 13  1  0
 13 14  1  0
 14 15  1  6
 15 16  1  0
 16 17  1  0
 16 18  1  0
 16 19  1  0
 19 20  1  6
 19 21  1  0
 14 22  1  0
 10  5  1  0
 22 11  1  0
M  END
>  <CHROM.0>  (9) 
-58.83240969,66.05056959,79.94668283,65.01934249,-178.47395804,23.98413696
-38.84392149,-61.98300822,-72.38234238,67.66343473

>  <CHROM.1>  (9) 
-175.89487688,49.82874004,-94.40089326,165.87925881,79.64226196,-179.72908335
70.84347640,-37.98971776,-4.92856858,11.31162234,-17.93288053,-0.14648571
0.21952133,0.53389195

>  <Name>  (9) 
denovo_401

>  <RI>  (9) 
-1.5254e+09

>  <Rbt.Current_Directory>  (9) 
/tmp/claude-0/-home-user-Rare-cancers/1af35c7f-7dc4-53ce-91d2-1631a2a10a85/scratchpad/smwork/cross/dock_8XTT-model8

>  <Rbt.Executable>  (9) 
rbdock - v25.07-alpha

>  <Rbt.Library>  (9) 
libRbt.so (25.07, Buildalpha)

>  <Rbt.Parameter_File>  (9) 
/tmp/claude-0/-home-user-Rare-cancers/1af35c7f-7dc4-53ce-91d2-1631a2a10a85/scratchpad/rdroot/share/rDock/data/scripts/dock.prm

>  <Rbt.Receptor>  (9) 
rec.prm

>  <SCORE>  (9) 
-9.7191

>  <SCORE.INTER>  (9) 
-12.0388

>  <SCORE.INTER.CONST>  (9) 
1

>  <SCORE.INTER.POLAR>  (9) 
-0.864808

>  <SCORE.INTER.REPUL>  (9) 
0

>  <SCORE.INTER.ROT>  (9) 
7

>  <SCORE.INTER.VDW>  (9) 
-21.4984

>  <SCORE.INTER.norm>  (9) 
-0.547218

>  <SCORE.INTRA>  (9) 
4.89547

>  <SCORE.INTRA.DIHEDRAL>  (9) 
2.33764

>  <SCORE.INTRA.DIHEDRAL.0>  (9) 
3.78927

>  <SCORE.INTRA.POLAR>  (9) 
0

>  <SCORE.INTRA.POLAR.0>  (9) 
0

>  <SCORE.INTRA.REPUL>  (9) 
0

>  <SCORE.INTRA.REPUL.0>  (9) 
0

>  <SCORE.INTRA.VDW>  (9) 
3.72665

>  <SCORE.INTRA.VDW.0>  (9) 
1.02728

>  <SCORE.INTRA.norm>  (9) 
0.222521

>  <SCORE.RESTR>  (9) 
0.0667885

>  <SCORE.RESTR.CAVITY>  (9) 
0.0667885

>  <SCORE.RESTR.norm>  (9) 
0.00303584

>  <SCORE.SYSTEM>  (9) 
-2.6426

>  <SCORE.SYSTEM.CONST>  (9) 
0

>  <SCORE.SYSTEM.DIHEDRAL>  (9) 
7.53362

>  <SCORE.SYSTEM.POLAR>  (9) 
-1.62869

>  <SCORE.SYSTEM.REPUL>  (9) 
0.093037

>  <SCORE.SYSTEM.VDW>  (9) 
-1.33707

>  <SCORE.SYSTEM.norm>  (9) 
-0.120118

>  <SCORE.heavy>  (9) 
22

>  <SCORE.norm>  (9) 
-0.441779

$$$$
denovo_401
     RDKit          3D

 22 23  0  0  0  0  0  0  0  0999 V2000
   -9.8798    8.4215  -20.0774 C   0  0  0  0  0  0  0  0  0  0  0  0
   -9.2302    9.4012  -19.2782 O   0  0  0  0  0  0  0  0  0  0  0  0
   -9.2190    9.0330  -17.8971 C   0  0  0  0  0  0  0  0  0  0  0  0
   -8.2450    9.9374  -17.1108 C   0  0  2  0  0  0  0  0  0  0  0  0
   -8.9213   11.2696  -16.8055 C   0  0  0  0  0  0  0  0  0  0  0  0
   -8.9940   12.2564  -17.8004 C   0  0  0  0  0  0  0  0  0  0  0  0
   -9.6062   13.4839  -17.5417 C   0  0  0  0  0  0  0  0  0  0  0  0
  -10.1521   13.7414  -16.2865 C   0  0  0  0  0  0  0  0  0  0  0  0
  -10.0863   12.7719  -15.2885 C   0  0  0  0  0  0  0  0  0  0  0  0
   -9.4743   11.5436  -15.5447 C   0  0  0  0  0  0  0  0  0  0  0  0
   -6.8902   10.1350  -17.8376 C   0  0  2  0  0  0  0  0  0  0  0  0
   -6.0108    8.8820  -17.9031 C   0  0  0  0  0  0  0  0  0  0  0  0
   -4.5657    9.3792  -18.0075 C   0  0  0  0  0  0  0  0  0  0  0  0
   -4.6120   10.9005  -17.8418 C   0  0  2  0  0  0  0  0  0  0  0  0
   -3.4562   11.5334  -17.0478 C   0  0  0  0  0  0  0  0  0  0  0  0
   -2.1302   11.8772  -17.8091 C   0  0  0  0  0  0  0  0  0  0  0  0
   -2.3690   13.0731  -18.7533 C   0  0  0  0  0  0  0  0  0  0  0  0
   -1.1140   12.3251  -16.7278 C   0  0  0  0  0  0  0  0  0  0  0  0
   -1.5615   10.6603  -18.6049 C   0  0  1  0  0  0  0  0  0  0  0  0
   -2.2935   10.3300  -19.9060 C   0  0  0  0  0  0  0  0  0  0  0  0
   -0.1947   10.8752  -18.9609 O   0  0  0  0  0  0  0  0  0  0  0  0
   -5.9599   11.1388  -17.1485 C   0  0  0  0  0  0  0  0  0  0  0  0
  1  2  1  0
  2  3  1  0
  4  3  1  6
  4  5  1  0
  5  6  2  0
  6  7  1  0
  7  8  2  0
  8  9  1  0
  9 10  2  0
  4 11  1  0
 11 12  1  1
 12 13  1  0
 13 14  1  0
 14 15  1  1
 15 16  1  0
 16 17  1  0
 16 18  1  0
 16 19  1  0
 19 20  1  6
 19 21  1  0
 14 22  1  0
 10  5  1  0
 22 11  1  0
M  END
>  <CHROM.0>  (10) 
60.50416062,65.04887853,-58.61398709,-66.12173690,-60.93354511,94.18610622
-178.44199233,-61.80522071,-72.35508202,-176.51598664

>  <CHROM.1>  (10) 
167.23430311,80.19675656,-79.64335010,-68.99738959,84.89772037,70.74888205
75.86760942,171.20808827,-6.02651032,11.00196430,-17.79832747,3.08550458
0.11499382,0.57658744

>  <Name>  (10) 
denovo_401

>  <RI>  (10) 
-1.5254e+09

>  <Rbt.Current_Directory>  (10) 
/tmp/claude-0/-home-user-Rare-cancers/1af35c7f-7dc4-53ce-91d2-1631a2a10a85/scratchpad/smwork/cross/dock_8XTT-model8

>  <Rbt.Executable>  (10) 
rbdock - v25.07-alpha

>  <Rbt.Library>  (10) 
libRbt.so (25.07, Buildalpha)

>  <Rbt.Parameter_File>  (10) 
/tmp/claude-0/-home-user-Rare-cancers/1af35c7f-7dc4-53ce-91d2-1631a2a10a85/scratchpad/rdroot/share/rDock/data/scripts/dock.prm

>  <Rbt.Receptor>  (10) 
rec.prm

>  <SCORE>  (10) 
-9.5004

>  <SCORE.INTER>  (10) 
-11.1096

>  <SCORE.INTER.CONST>  (10) 
1

>  <SCORE.INTER.POLAR>  (10) 
0

>  <SCORE.INTER.REPUL>  (10) 
0.109023

>  <SCORE.INTER.ROT>  (10) 
7

>  <SCORE.INTER.VDW>  (10) 
-24.0547

>  <SCORE.INTER.norm>  (10) 
-0.504982

>  <SCORE.INTRA>  (10) 
3.72139

>  <SCORE.INTRA.DIHEDRAL>  (10) 
3.45973

>  <SCORE.INTRA.DIHEDRAL.0>  (10) 
3.78927

>  <SCORE.INTRA.POLAR>  (10) 
0

>  <SCORE.INTRA.POLAR.0>  (10) 
0

>  <SCORE.INTRA.REPUL>  (10) 
0

>  <SCORE.INTRA.REPUL.0>  (10) 
0

>  <SCORE.INTRA.VDW>  (10) 
1.99152

>  <SCORE.INTRA.VDW.0>  (10) 
1.02728

>  <SCORE.INTRA.norm>  (10) 
0.169154

>  <SCORE.RESTR>  (10) 
0.0501148

>  <SCORE.RESTR.CAVITY>  (10) 
0.0501148

>  <SCORE.RESTR.norm>  (10) 
0.00227794

>  <SCORE.SYSTEM>  (10) 
-2.16227

>  <SCORE.SYSTEM.CONST>  (10) 
0

>  <SCORE.SYSTEM.DIHEDRAL>  (10) 
3.30945

>  <SCORE.SYSTEM.POLAR>  (10) 
-0.632263

>  <SCORE.SYSTEM.REPUL>  (10) 
0.207889

>  <SCORE.SYSTEM.VDW>  (10) 
-2.70674

>  <SCORE.SYSTEM.norm>  (10) 
-0.0982849

>  <SCORE.heavy>  (10) 
22

>  <SCORE.norm>  (10) 
-0.431835

$$$$
denovo_401
     RDKit          3D

 22 23  0  0  0  0  0  0  0  0999 V2000
   -2.2394   14.9653  -15.9108 C   0  0  0  0  0  0  0  0  0  0  0  0
   -2.6476   13.7539  -16.5325 O   0  0  0  0  0  0  0  0  0  0  0  0
   -1.9505   12.6257  -15.9990 C   0  0  0  0  0  0  0  0  0  0  0  0
   -2.3066   11.3518  -16.7960 C   0  0  2  0  0  0  0  0  0  0  0  0
   -2.0272   11.5832  -18.2771 C   0  0  0  0  0  0  0  0  0  0  0  0
   -1.2860   12.7052  -18.6777 C   0  0  0  0  0  0  0  0  0  0  0  0
   -1.0208   12.9377  -20.0283 C   0  0  0  0  0  0  0  0  0  0  0  0
   -1.4935   12.0536  -20.9952 C   0  0  0  0  0  0  0  0  0  0  0  0
   -2.2319   10.9361  -20.6127 C   0  0  0  0  0  0  0  0  0  0  0  0
   -2.4986   10.7016  -19.2626 C   0  0  0  0  0  0  0  0  0  0  0  0
   -3.7631   10.8799  -16.5537 C   0  0  2  0  0  0  0  0  0  0  0  0
   -4.1144    9.5336  -17.1954 C   0  0  0  0  0  0  0  0  0  0  0  0
   -5.6265    9.5580  -17.4390 C   0  0  0  0  0  0  0  0  0  0  0  0
   -6.1053   10.9686  -17.0854 C   0  0  2  0  0  0  0  0  0  0  0  0
   -7.2094   11.5563  -17.9811 C   0  0  0  0  0  0  0  0  0  0  0  0
   -8.6930   11.1289  -17.7121 C   0  0  0  0  0  0  0  0  0  0  0  0
   -9.6302   11.8614  -18.6938 C   0  0  0  0  0  0  0  0  0  0  0  0
   -8.7706    9.6133  -18.0272 C   0  0  0  0  0  0  0  0  0  0  0  0
   -9.1359   11.3912  -16.2380 C   0  0  1  0  0  0  0  0  0  0  0  0
   -8.9153   12.8174  -15.7329 C   0  0  0  0  0  0  0  0  0  0  0  0
  -10.5277   11.1189  -16.0658 O   0  0  0  0  0  0  0  0  0  0  0  0
   -4.8219   11.8060  -17.1616 C   0  0  0  0  0  0  0  0  0  0  0  0
  1  2  1  0
  2  3  1  0
  4  3  1  1
  4  5  1  0
  5  6  2  0
  6  7  1  0
  7  8  2  0
  8  9  1  0
  9 10  2  0
  4 11  1  0
 11 12  1  6
 12 13  1  0
 13 14  1  0
 14 15  1  6
 15 16  1  0
 16 17  1  0
 16 18  1  0
 16 19  1  0
 19 20  1  6
 19 21  1  0
 14 22  1  0
 10  5  1  0
 22 11  1  0
M  END
>  <CHROM.0>  (11) 
-179.09998943,65.61800228,66.24950136,-67.58386530,32.77307257,-148.70804990
175.86808891,67.09901894,179.92458096,66.36073853

>  <CHROM.1>  (11) 
-174.01310300,54.90761675,12.46960860,-173.35571675,80.84042824,178.46713576
53.27822462,64.17027984,-4.97890696,11.65019905,-17.62253507,-0.05649083
0.23689950,0.92166619

>  <Name>  (11) 
denovo_401

>  <RI>  (11) 
-1.5254e+09

>  <Rbt.Current_Directory>  (11) 
/tmp/claude-0/-home-user-Rare-cancers/1af35c7f-7dc4-53ce-91d2-1631a2a10a85/scratchpad/smwork/cross/dock_8XTT-model8

>  <Rbt.Executable>  (11) 
rbdock - v25.07-alpha

>  <Rbt.Library>  (11) 
libRbt.so (25.07, Buildalpha)

>  <Rbt.Parameter_File>  (11) 
/tmp/claude-0/-home-user-Rare-cancers/1af35c7f-7dc4-53ce-91d2-1631a2a10a85/scratchpad/rdroot/share/rDock/data/scripts/dock.prm

>  <Rbt.Receptor>  (11) 
rec.prm

>  <SCORE>  (11) 
-8.9829

>  <SCORE.INTER>  (11) 
-11.9964

>  <SCORE.INTER.CONST>  (11) 
1

>  <SCORE.INTER.POLAR>  (11) 
-1.16562

>  <SCORE.INTER.REPUL>  (11) 
0

>  <SCORE.INTER.ROT>  (11) 
7

>  <SCORE.INTER.VDW>  (11) 
-20.4333

>  <SCORE.INTER.norm>  (11) 
-0.54529

>  <SCORE.INTRA>  (11) 
3.46039

>  <SCORE.INTRA.DIHEDRAL>  (11) 
-0.172999

>  <SCORE.INTRA.DIHEDRAL.0>  (11) 
3.78927

>  <SCORE.INTRA.POLAR>  (11) 
0

>  <SCORE.INTRA.POLAR.0>  (11) 
0

>  <SCORE.INTRA.REPUL>  (11) 
0

>  <SCORE.INTRA.REPUL.0>  (11) 
0

>  <SCORE.INTRA.VDW>  (11) 
3.54689

>  <SCORE.INTRA.VDW.0>  (11) 
1.02728

>  <SCORE.INTRA.norm>  (11) 
0.157291

>  <SCORE.RESTR>  (11) 
0.639531

>  <SCORE.RESTR.CAVITY>  (11) 
0.639531

>  <SCORE.RESTR.norm>  (11) 
0.0290696

>  <SCORE.SYSTEM>  (11) 
-1.08645

>  <SCORE.SYSTEM.CONST>  (11) 
0

>  <SCORE.SYSTEM.DIHEDRAL>  (11) 
6.13531

>  <SCORE.SYSTEM.POLAR>  (11) 
-0.804795

>  <SCORE.SYSTEM.REPUL>  (11) 
0.008303

>  <SCORE.SYSTEM.VDW>  (11) 
-1.45932

>  <SCORE.SYSTEM.norm>  (11) 
-0.0493842

>  <SCORE.heavy>  (11) 
22

>  <SCORE.norm>  (11) 
-0.408314

$$$$
denovo_401
     RDKit          3D

 22 23  0  0  0  0  0  0  0  0999 V2000
    0.7071    9.9603  -19.7002 C   0  0  0  0  0  0  0  0  0  0  0  0
   -0.3136   10.9412  -19.5722 O   0  0  0  0  0  0  0  0  0  0  0  0
   -1.4269   10.4500  -18.8223 C   0  0  0  0  0  0  0  0  0  0  0  0
   -2.6053   11.4452  -18.9012 C   0  0  2  0  0  0  0  0  0  0  0  0
   -2.2699   12.6960  -18.0963 C   0  0  0  0  0  0  0  0  0  0  0  0
   -2.1565   13.9330  -18.7489 C   0  0  0  0  0  0  0  0  0  0  0  0
   -1.8477   15.0903  -18.0319 C   0  0  0  0  0  0  0  0  0  0  0  0
   -1.6474   15.0262  -16.6550 C   0  0  0  0  0  0  0  0  0  0  0  0
   -1.7553   13.8051  -15.9937 C   0  0  0  0  0  0  0  0  0  0  0  0
   -2.0637   12.6463  -16.7086 C   0  0  0  0  0  0  0  0  0  0  0  0
   -3.9508   10.8187  -18.4541 C   0  0  2  0  0  0  0  0  0  0  0  0
   -4.5718    9.8487  -19.4645 C   0  0  0  0  0  0  0  0  0  0  0  0
   -6.0817    9.8722  -19.2070 C   0  0  0  0  0  0  0  0  0  0  0  0
   -6.3323   10.9663  -18.1657 C   0  0  2  0  0  0  0  0  0  0  0  0
   -7.6107   11.8018  -18.3514 C   0  0  0  0  0  0  0  0  0  0  0  0
   -8.9956   11.1049  -18.1223 C   0  0  0  0  0  0  0  0  0  0  0  0
   -9.2660   10.1010  -19.2615 C   0  0  0  0  0  0  0  0  0  0  0  0
   -8.8621   10.2992  -16.8050 C   0  0  0  0  0  0  0  0  0  0  0  0
  -10.1705   12.1266  -18.0066 C   0  0  1  0  0  0  0  0  0  0  0  0
   -9.9331   13.2898  -17.0430 C   0  0  0  0  0  0  0  0  0  0  0  0
  -10.4644   12.7144  -19.2751 O   0  0  0  0  0  0  0  0  0  0  0  0
   -5.0759   11.8416  -18.2646 C   0  0  0  0  0  0  0  0  0  0  0  0
  1  2  1  0
  2  3  1  0
  4  3  1  1
  4  5  1  0
  5  6  2  0
  6  7  1  0
  7  8  2  0
  8  9  1  0
  9 10  2  0
  4 11  1  0
 11 12  1  6
 12 13  1  0
 13 14  1  0
 14 15  1  6
 15 16  1  0
 16 17  1  0
 16 18  1  0
 16 19  1  0
 19 20  1  1
 19 21  1  0
 14 22  1  0
 10  5  1  0
 22 11  1  0
M  END
>  <CHROM.0>  (12) 
-176.40873959,66.25971322,-178.85682862,-176.90447511,-179.36738142,-26.51026966
-24.89765107,-62.07477638,-74.91231212,64.42493943

>  <CHROM.1>  (12) 
-170.59908571,-70.73502647,116.45475699,-74.31361840,68.93074798,-70.36473238
-48.94334096,-58.36277909,-4.92542330,11.81408800,-18.29304977,-0.05628150
-0.04743474,-2.67564633

>  <Name>  (12) 
denovo_401

>  <RI>  (12) 
-1.5254e+09

>  <Rbt.Current_Directory>  (12) 
/tmp/claude-0/-home-user-Rare-cancers/1af35c7f-7dc4-53ce-91d2-1631a2a10a85/scratchpad/smwork/cross/dock_8XTT-model8

>  <Rbt.Executable>  (12) 
rbdock - v25.07-alpha

>  <Rbt.Library>  (12) 
libRbt.so (25.07, Buildalpha)

>  <Rbt.Parameter_File>  (12) 
/tmp/claude-0/-home-user-Rare-cancers/1af35c7f-7dc4-53ce-91d2-1631a2a10a85/scratchpad/rdroot/share/rDock/data/scripts/dock.prm

>  <Rbt.Receptor>  (12) 
rec.prm

>  <SCORE>  (12) 
-8.9544

>  <SCORE.INTER>  (12) 
-7.50935

>  <SCORE.INTER.CONST>  (12) 
1

>  <SCORE.INTER.POLAR>  (12) 
-0.22823

>  <SCORE.INTER.REPUL>  (12) 
0.0322898

>  <SCORE.INTER.ROT>  (12) 
7

>  <SCORE.INTER.VDW>  (12) 
-19.2948

>  <SCORE.INTER.norm>  (12) 
-0.341334

>  <SCORE.INTRA>  (12) 
1.34688

>  <SCORE.INTRA.DIHEDRAL>  (12) 
0.214053

>  <SCORE.INTRA.DIHEDRAL.0>  (12) 
3.78927

>  <SCORE.INTRA.POLAR>  (12) 
0

>  <SCORE.INTRA.POLAR.0>  (12) 
0

>  <SCORE.INTRA.REPUL>  (12) 
0

>  <SCORE.INTRA.REPUL.0>  (12) 
0

>  <SCORE.INTRA.VDW>  (12) 
1.23985

>  <SCORE.INTRA.VDW.0>  (12) 
1.02728

>  <SCORE.INTRA.norm>  (12) 
0.0612216

>  <SCORE.RESTR>  (12) 
0.25872

>  <SCORE.RESTR.CAVITY>  (12) 
0.25872

>  <SCORE.RESTR.norm>  (12) 
0.01176

>  <SCORE.SYSTEM>  (12) 
-3.0507

>  <SCORE.SYSTEM.CONST>  (12) 
0

>  <SCORE.SYSTEM.DIHEDRAL>  (12) 
8.09427

>  <SCORE.SYSTEM.POLAR>  (12) 
-1.61172

>  <SCORE.SYSTEM.REPUL>  (12) 
0.172837

>  <SCORE.SYSTEM.VDW>  (12) 
-2.48216

>  <SCORE.SYSTEM.norm>  (12) 
-0.138668

>  <SCORE.heavy>  (12) 
22

>  <SCORE.norm>  (12) 
-0.407021

$$$$
denovo_401
     RDKit          3D

 22 23  0  0  0  0  0  0  0  0999 V2000
    0.4960    9.9958  -19.6040 C   0  0  0  0  0  0  0  0  0  0  0  0
   -0.5610   10.9435  -19.5337 O   0  0  0  0  0  0  0  0  0  0  0  0
   -1.5954   10.5159  -18.6446 C   0  0  0  0  0  0  0  0  0  0  0  0
   -2.7932   11.4884  -18.7112 C   0  0  2  0  0  0  0  0  0  0  0  0
   -2.4341   12.7878  -17.9987 C   0  0  0  0  0  0  0  0  0  0  0  0
   -2.2843   13.9691  -18.7409 C   0  0  0  0  0  0  0  0  0  0  0  0
   -1.9532   15.1692  -18.1094 C   0  0  0  0  0  0  0  0  0  0  0  0
   -1.7667   15.2040  -16.7296 C   0  0  0  0  0  0  0  0  0  0  0  0
   -1.9108   14.0390  -15.9797 C   0  0  0  0  0  0  0  0  0  0  0  0
   -2.2415   12.8376  -16.6091 C   0  0  0  0  0  0  0  0  0  0  0  0
   -4.1001   10.8699  -18.1524 C   0  0  2  0  0  0  0  0  0  0  0  0
   -4.5747    9.6095  -18.8831 C   0  0  0  0  0  0  0  0  0  0  0  0
   -6.0926    9.5476  -18.6864 C   0  0  0  0  0  0  0  0  0  0  0  0
   -6.4976   10.8470  -17.9854 C   0  0  2  0  0  0  0  0  0  0  0  0
   -7.8333   11.4699  -18.4268 C   0  0  0  0  0  0  0  0  0  0  0  0
   -8.8690   11.8718  -17.3214 C   0  0  0  0  0  0  0  0  0  0  0  0
  -10.1273   12.4705  -17.9824 C   0  0  0  0  0  0  0  0  0  0  0  0
   -9.2860   10.5543  -16.6195 C   0  0  0  0  0  0  0  0  0  0  0  0
   -8.2760   12.8690  -16.2765 C   0  0  1  0  0  0  0  0  0  0  0  0
   -9.1666   13.1551  -15.0670 C   0  0  0  0  0  0  0  0  0  0  0  0
   -7.0376   12.3855  -15.7533 O   0  0  0  0  0  0  0  0  0  0  0  0
   -5.3210   11.7872  -18.2784 C   0  0  0  0  0  0  0  0  0  0  0  0
  1  2  1  0
  2  3  1  0
  4  3  1  1
  4  5  1  0
  5  6  2  0
  6  7  1  0
  7  8  2  0
  8  9  1  0
  9 10  2  0
  4 11  1  0
 11 12  1  6
 12 13  1  0
 13 14  1  0
 14 15  1  6
 15 16  1  0
 16 17  1  0
 16 18  1  0
 16 19  1  0
 19 20  1  1
 19 21  1  0
 14 22  1  0
 10  5  1  0
 22 11  1  0
M  END
>  <CHROM.0>  (13) 
-59.36207560,66.35883391,-179.79539486,-66.91053605,-59.82619279,-28.58830533
-178.95602053,-64.36945009,-175.79979861,65.03022502

>  <CHROM.1>  (13) 
-173.75813150,-73.55939288,111.84961300,-60.00699686,129.81768154,-179.93690955
-172.03616683,-56.87100456,-4.78746592,11.97070545,-17.72561806,0.07603256
-0.19507274,-2.62539531

>  <Name>  (13) 
denovo_401

>  <RI>  (13) 
-1.5254e+09

>  <Rbt.Current_Directory>  (13) 
/tmp/claude-0/-home-user-Rare-cancers/1af35c7f-7dc4-53ce-91d2-1631a2a10a85/scratchpad/smwork/cross/dock_8XTT-model8

>  <Rbt.Executable>  (13) 
rbdock - v25.07-alpha

>  <Rbt.Library>  (13) 
libRbt.so (25.07, Buildalpha)

>  <Rbt.Parameter_File>  (13) 
/tmp/claude-0/-home-user-Rare-cancers/1af35c7f-7dc4-53ce-91d2-1631a2a10a85/scratchpad/rdroot/share/rDock/data/scripts/dock.prm

>  <Rbt.Receptor>  (13) 
rec.prm

>  <SCORE>  (13) 
-8.4915

>  <SCORE.INTER>  (13) 
-6.98559

>  <SCORE.INTER.CONST>  (13) 
1

>  <SCORE.INTER.POLAR>  (13) 
0

>  <SCORE.INTER.REPUL>  (13) 
0.00239125

>  <SCORE.INTER.ROT>  (13) 
7

>  <SCORE.INTER.VDW>  (13) 
-19.3976

>  <SCORE.INTER.norm>  (13) 
-0.317527

>  <SCORE.INTRA>  (13) 
2.92137

>  <SCORE.INTRA.DIHEDRAL>  (13) 
4.2908

>  <SCORE.INTRA.DIHEDRAL.0>  (13) 
3.78927

>  <SCORE.INTRA.POLAR>  (13) 
0

>  <SCORE.INTRA.POLAR.0>  (13) 
0

>  <SCORE.INTRA.REPUL>  (13) 
0

>  <SCORE.INTRA.REPUL.0>  (13) 
0

>  <SCORE.INTRA.VDW>  (13) 
0.77597

>  <SCORE.INTRA.VDW.0>  (13) 
1.02728

>  <SCORE.INTRA.norm>  (13) 
0.13279

>  <SCORE.RESTR>  (13) 
0.00316869

>  <SCORE.RESTR.CAVITY>  (13) 
0.00316869

>  <SCORE.RESTR.norm>  (13) 
0.000144031

>  <SCORE.SYSTEM>  (13) 
-4.4304

>  <SCORE.SYSTEM.CONST>  (13) 
0

>  <SCORE.SYSTEM.DIHEDRAL>  (13) 
2.65432

>  <SCORE.SYSTEM.POLAR>  (13) 
-0.662013

>  <SCORE.SYSTEM.VDW>  (13) 
-3.50671

>  <SCORE.SYSTEM.norm>  (13) 
-0.201382

>  <SCORE.heavy>  (13) 
22

>  <SCORE.norm>  (13) 
-0.385975

$$$$
denovo_401
     RDKit          3D

 22 23  0  0  0  0  0  0  0  0999 V2000
    0.0153   10.2001  -19.7374 C   0  0  0  0  0  0  0  0  0  0  0  0
   -1.1251   11.0397  -19.6141 O   0  0  0  0  0  0  0  0  0  0  0  0
   -0.7864   12.3118  -19.0571 C   0  0  0  0  0  0  0  0  0  0  0  0
   -2.0635   13.1445  -18.8108 C   0  0  2  0  0  0  0  0  0  0  0  0
   -1.6844   14.4898  -18.2013 C   0  0  0  0  0  0  0  0  0  0  0  0
   -1.2671   15.5380  -19.0355 C   0  0  0  0  0  0  0  0  0  0  0  0
   -0.9129   16.7770  -18.4985 C   0  0  0  0  0  0  0  0  0  0  0  0
   -0.9700   16.9838  -17.1223 C   0  0  0  0  0  0  0  0  0  0  0  0
   -1.3811   15.9521  -16.2816 C   0  0  0  0  0  0  0  0  0  0  0  0
   -1.7355   14.7122  -16.8162 C   0  0  0  0  0  0  0  0  0  0  0  0
   -3.1097   12.3968  -17.9452 C   0  0  2  0  0  0  0  0  0  0  0  0
   -2.5281   11.6567  -16.7362 C   0  0  0  0  0  0  0  0  0  0  0  0
   -3.4941   10.5069  -16.4339 C   0  0  0  0  0  0  0  0  0  0  0  0
   -4.5314   10.4977  -17.5600 C   0  0  2  0  0  0  0  0  0  0  0  0
   -5.0029    9.1137  -18.0387 C   0  0  0  0  0  0  0  0  0  0  0  0
   -6.2491    9.0381  -18.9860 C   0  0  0  0  0  0  0  0  0  0  0  0
   -6.0336    9.9624  -20.2017 C   0  0  0  0  0  0  0  0  0  0  0  0
   -6.3091    7.5794  -19.5068 C   0  0  0  0  0  0  0  0  0  0  0  0
   -7.5813    9.3997  -18.2564 C   0  0  1  0  0  0  0  0  0  0  0  0
   -8.8489    9.2531  -19.0988 C   0  0  0  0  0  0  0  0  0  0  0  0
   -7.7726    8.5783  -17.1034 O   0  0  0  0  0  0  0  0  0  0  0  0
   -3.8339   11.2692  -18.6881 C   0  0  0  0  0  0  0  0  0  0  0  0
  1  2  1  0
  2  3  1  0
  4  3  1  1
  4  5  1  0
  5  6  2  0
  6  7  1  0
  7  8  2  0
  8  9  1  0
  9 10  2  0
  4 11  1  0
 11 12  1  1
 12 13  1  0
 13 14  1  0
 14 15  1  6
 15 16  1  0
 16 17  1  0
 16 18  1  0
 16 19  1  0
 19 20  1  6
 19 21  1  0
 14 22  1  0
 10  5  1  0
 22 11  1  0
M  END
>  <CHROM.0>  (14) 
-56.14862256,66.64651567,-178.32159962,65.63545756,-63.86963694,-144.69516785
-176.64120838,68.81581190,-71.57608499,-178.93680559

>  <CHROM.1>  (14) 
-174.53375377,179.31621590,82.74810458,43.26726544,168.55311490,53.18067060
-175.99146383,175.82197396,-3.58242725,11.70455498,-18.28349524,-0.77129449
-0.29666842,-2.74471630

>  <Name>  (14) 
denovo_401

>  <RI>  (14) 
-1.5254e+09

>  <Rbt.Current_Directory>  (14) 
/tmp/claude-0/-home-user-Rare-cancers/1af35c7f-7dc4-53ce-91d2-1631a2a10a85/scratchpad/smwork/cross/dock_8XTT-model8

>  <Rbt.Executable>  (14) 
rbdock - v25.07-alpha

>  <Rbt.Library>  (14) 
libRbt.so (25.07, Buildalpha)

>  <Rbt.Parameter_File>  (14) 
/tmp/claude-0/-home-user-Rare-cancers/1af35c7f-7dc4-53ce-91d2-1631a2a10a85/scratchpad/rdroot/share/rDock/data/scripts/dock.prm

>  <Rbt.Receptor>  (14) 
rec.prm

>  <SCORE>  (14) 
-7.7757

>  <SCORE.INTER>  (14) 
-9.8378

>  <SCORE.INTER.CONST>  (14) 
1

>  <SCORE.INTER.POLAR>  (14) 
0

>  <SCORE.INTER.REPUL>  (14) 
0

>  <SCORE.INTER.ROT>  (14) 
7

>  <SCORE.INTER.VDW>  (14) 
-22.2378

>  <SCORE.INTER.norm>  (14) 
-0.447173

>  <SCORE.INTRA>  (14) 
3.62996

>  <SCORE.INTRA.DIHEDRAL>  (14) 
-0.5542

>  <SCORE.INTRA.DIHEDRAL.0>  (14) 
3.78927

>  <SCORE.INTRA.POLAR>  (14) 
0

>  <SCORE.INTRA.POLAR.0>  (14) 
0

>  <SCORE.INTRA.REPUL>  (14) 
0

>  <SCORE.INTRA.REPUL.0>  (14) 
0

>  <SCORE.INTRA.VDW>  (14) 
3.90706

>  <SCORE.INTRA.VDW.0>  (14) 
1.02728

>  <SCORE.INTRA.norm>  (14) 
0.164998

>  <SCORE.RESTR>  (14) 
0.562097

>  <SCORE.RESTR.CAVITY>  (14) 
0.562097

>  <SCORE.RESTR.norm>  (14) 
0.0255498

>  <SCORE.SYSTEM>  (14) 
-2.12997

>  <SCORE.SYSTEM.CONST>  (14) 
0

>  <SCORE.SYSTEM.DIHEDRAL>  (14) 
3.8462

>  <SCORE.SYSTEM.POLAR>  (14) 
-0.535981

>  <SCORE.SYSTEM.REPUL>  (14) 
0.107431

>  <SCORE.SYSTEM.VDW>  (14) 
-2.76788

>  <SCORE.SYSTEM.norm>  (14) 
-0.0968166

>  <SCORE.heavy>  (14) 
22

>  <SCORE.norm>  (14) 
-0.353441

$$$$
denovo_401
     RDKit          3D

 22 23  0  0  0  0  0  0  0  0999 V2000
   -9.7836   11.5163  -21.5200 C   0  0  0  0  0  0  0  0  0  0  0  0
  -10.3526   12.5039  -20.6708 O   0  0  0  0  0  0  0  0  0  0  0  0
   -9.5126   12.7825  -19.5482 C   0  0  0  0  0  0  0  0  0  0  0  0
   -9.5255   11.5934  -18.5629 C   0  0  2  0  0  0  0  0  0  0  0  0
   -9.4929   12.1180  -17.1316 C   0  0  0  0  0  0  0  0  0  0  0  0
   -8.8570   13.3372  -16.8523 C   0  0  0  0  0  0  0  0  0  0  0  0
   -8.8131   13.8348  -15.5488 C   0  0  0  0  0  0  0  0  0  0  0  0
   -9.4025   13.1206  -14.5084 C   0  0  0  0  0  0  0  0  0  0  0  0
  -10.0362   11.9081  -14.7701 C   0  0  0  0  0  0  0  0  0  0  0  0
  -10.0812   11.4083  -16.0728 C   0  0  0  0  0  0  0  0  0  0  0  0
   -8.3823   10.5810  -18.8292 C   0  0  2  0  0  0  0  0  0  0  0  0
   -8.4672    9.2900  -18.0084 C   0  0  0  0  0  0  0  0  0  0  0  0
   -7.0318    8.7710  -17.8788 C   0  0  0  0  0  0  0  0  0  0  0  0
   -6.1213    9.8425  -18.4845 C   0  0  2  0  0  0  0  0  0  0  0  0
   -4.7768   10.0736  -17.7732 C   0  0  0  0  0  0  0  0  0  0  0  0
   -3.6344   10.8037  -18.5592 C   0  0  0  0  0  0  0  0  0  0  0  0
   -3.4540   10.1461  -19.9426 C   0  0  0  0  0  0  0  0  0  0  0  0
   -4.1256   12.2560  -18.7872 C   0  0  0  0  0  0  0  0  0  0  0  0
   -2.2810   10.8139  -17.7806 C   0  0  1  0  0  0  0  0  0  0  0  0
   -1.1432   11.5792  -18.4570 C   0  0  0  0  0  0  0  0  0  0  0  0
   -2.4395   11.3983  -16.4866 O   0  0  0  0  0  0  0  0  0  0  0  0
   -6.9926   11.1050  -18.4519 C   0  0  0  0  0  0  0  0  0  0  0  0
  1  2  1  0
  2  3  1  0
  4  3  1  6
  4  5  1  0
  5  6  2  0
  6  7  1  0
  7  8  2  0
  8  9  1  0
  9 10  2  0
  4 11  1  0
 11 12  1  1
 12 13  1  0
 13 14  1  0
 14 15  1  1
 15 16  1  0
 16 17  1  0
 16 18  1  0
 16 19  1  0
 19 20  1  6
 19 21  1  0
 14 22  1  0
 10  5  1  0
 22 11  1  0
M  END
>  <CHROM.0>  (15) 
-178.58321352,64.72731186,-178.55020315,-61.59530775,-177.05709606,-149.54501353
-60.87556760,-60.52982387,-73.06206005,66.41704189

>  <CHROM.1>  (15) 
-71.38969056,-142.45900627,-29.69796756,-171.86649573,161.38204931,-49.65679127
-176.72727579,176.62476981,-6.94642699,11.39231367,-17.99691182,3.02207851
-0.14914497,1.29479846

>  <Name>  (15) 
denovo_401

>  <RI>  (15) 
-1.5254e+09

>  <Rbt.Current_Directory>  (15) 
/tmp/claude-0/-home-user-Rare-cancers/1af35c7f-7dc4-53ce-91d2-1631a2a10a85/scratchpad/smwork/cross/dock_8XTT-model8

>  <Rbt.Executable>  (15) 
rbdock - v25.07-alpha

>  <Rbt.Library>  (15) 
libRbt.so (25.07, Buildalpha)

>  <Rbt.Parameter_File>  (15) 
/tmp/claude-0/-home-user-Rare-cancers/1af35c7f-7dc4-53ce-91d2-1631a2a10a85/scratchpad/rdroot/share/rDock/data/scripts/dock.prm

>  <Rbt.Receptor>  (15) 
rec.prm

>  <SCORE>  (15) 
-7.6302

>  <SCORE.INTER>  (15) 
-10.4185

>  <SCORE.INTER.CONST>  (15) 
1

>  <SCORE.INTER.POLAR>  (15) 
0

>  <SCORE.INTER.REPUL>  (15) 
0

>  <SCORE.INTER.ROT>  (15) 
7

>  <SCORE.INTER.VDW>  (15) 
-22.8185

>  <SCORE.INTER.norm>  (15) 
-0.473568

>  <SCORE.INTRA>  (15) 
6.52436

>  <SCORE.INTRA.DIHEDRAL>  (15) 
3.50963

>  <SCORE.INTRA.DIHEDRAL.0>  (15) 
3.78927

>  <SCORE.INTRA.POLAR>  (15) 
0

>  <SCORE.INTRA.POLAR.0>  (15) 
0

>  <SCORE.INTRA.REPUL>  (15) 
0

>  <SCORE.INTRA.REPUL.0>  (15) 
0

>  <SCORE.INTRA.VDW>  (15) 
4.76955

>  <SCORE.INTRA.VDW.0>  (15) 
1.02728

>  <SCORE.INTRA.norm>  (15) 
0.296562

>  <SCORE.RESTR>  (15) 
0.584904

>  <SCORE.RESTR.CAVITY>  (15) 
0.584904

>  <SCORE.RESTR.norm>  (15) 
0.0265865

>  <SCORE.SYSTEM>  (15) 
-4.32095

>  <SCORE.SYSTEM.CONST>  (15) 
0

>  <SCORE.SYSTEM.DIHEDRAL>  (15) 
3.01814

>  <SCORE.SYSTEM.POLAR>  (15) 
-1.13415

>  <SCORE.SYSTEM.VDW>  (15) 
-1.97392

>  <SCORE.SYSTEM.norm>  (15) 
-0.196407

>  <SCORE.heavy>  (15) 
22

>  <SCORE.norm>  (15) 
-0.346826

$$$$
denovo_401
     RDKit          3D

 22 23  0  0  0  0  0  0  0  0999 V2000
    0.5530    9.8513  -19.7476 C   0  0  0  0  0  0  0  0  0  0  0  0
   -0.6229   10.6382  -19.8834 O   0  0  0  0  0  0  0  0  0  0  0  0
   -0.6277   11.7416  -18.9746 C   0  0  0  0  0  0  0  0  0  0  0  0
   -1.9925   12.4631  -19.0173 C   0  0  2  0  0  0  0  0  0  0  0  0
   -1.9459   13.6939  -18.1184 C   0  0  0  0  0  0  0  0  0  0  0  0
   -1.9729   14.9746  -18.6912 C   0  0  0  0  0  0  0  0  0  0  0  0
   -1.9285   16.1149  -17.8872 C   0  0  0  0  0  0  0  0  0  0  0  0
   -1.8554   15.9903  -16.5019 C   0  0  0  0  0  0  0  0  0  0  0  0
   -1.8265   14.7255  -15.9190 C   0  0  0  0  0  0  0  0  0  0  0  0
   -1.8705   13.5837  -16.7210 C   0  0  0  0  0  0  0  0  0  0  0  0
   -3.1759   11.5308  -18.6527 C   0  0  2  0  0  0  0  0  0  0  0  0
   -3.4279   10.3967  -19.6516 C   0  0  0  0  0  0  0  0  0  0  0  0
   -4.9135   10.0429  -19.5306 C   0  0  0  0  0  0  0  0  0  0  0  0
   -5.5348   11.0752  -18.5859 C   0  0  2  0  0  0  0  0  0  0  0  0
   -6.9563   11.5482  -18.9358 C   0  0  0  0  0  0  0  0  0  0  0  0
   -8.1630   10.9190  -18.1585 C   0  0  0  0  0  0  0  0  0  0  0  0
   -8.0588   11.2758  -16.6617 C   0  0  0  0  0  0  0  0  0  0  0  0
   -9.4393   11.5975  -18.7179 C   0  0  0  0  0  0  0  0  0  0  0  0
   -8.2559    9.3715  -18.3442 C   0  0  1  0  0  0  0  0  0  0  0  0
   -7.0731    8.5745  -17.7930 C   0  0  0  0  0  0  0  0  0  0  0  0
   -9.4211    8.8484  -17.7040 O   0  0  0  0  0  0  0  0  0  0  0  0
   -4.5349   12.2383  -18.6277 C   0  0  0  0  0  0  0  0  0  0  0  0
  1  2  1  0
  2  3  1  0
  4  3  1  1
  4  5  1  0
  5  6  2  0
  6  7  1  0
  7  8  2  0
  8  9  1  0
  9 10  2  0
  4 11  1  0
 11 12  1  6
 12 13  1  0
 13 14  1  0
 14 15  1  6
 15 16  1  0
 16 17  1  0
 16 18  1  0
 16 19  1  0
 19 20  1  1
 19 21  1  0
 14 22  1  0
 10  5  1  0
 22 11  1  0
M  END
>  <CHROM.0>  (16) 
66.88065684,61.11190214,-62.05454298,-63.62408460,-60.88067545,-35.93407298
-176.49784445,70.38936762,-70.44493745,-179.48971406

>  <CHROM.1>  (16) 
-172.57382958,-175.97334410,110.69338991,-65.75534050,100.05155739,63.33505154
63.51015266,65.12024323,-4.30386471,11.76690571,-18.33202185,-0.39513860
-0.19755069,-2.73051702

>  <Name>  (16) 
denovo_401

>  <RI>  (16) 
-1.5254e+09

>  <Rbt.Current_Directory>  (16) 
/tmp/claude-0/-home-user-Rare-cancers/1af35c7f-7dc4-53ce-91d2-1631a2a10a85/scratchpad/smwork/cross/dock_8XTT-model8

>  <Rbt.Executable>  (16) 
rbdock - v25.07-alpha

>  <Rbt.Library>  (16) 
libRbt.so (25.07, Buildalpha)

>  <Rbt.Parameter_File>  (16) 
/tmp/claude-0/-home-user-Rare-cancers/1af35c7f-7dc4-53ce-91d2-1631a2a10a85/scratchpad/rdroot/share/rDock/data/scripts/dock.prm

>  <Rbt.Receptor>  (16) 
rec.prm

>  <SCORE>  (16) 
-7.5927

>  <SCORE.INTER>  (16) 
-8.74029

>  <SCORE.INTER.CONST>  (16) 
1

>  <SCORE.INTER.POLAR>  (16) 
-0.940137

>  <SCORE.INTER.REPUL>  (16) 
0

>  <SCORE.INTER.ROT>  (16) 
7

>  <SCORE.INTER.VDW>  (16) 
-17.9438

>  <SCORE.INTER.norm>  (16) 
-0.397286

>  <SCORE.INTRA>  (16) 
2.66018

>  <SCORE.INTRA.DIHEDRAL>  (16) 
2.63463

>  <SCORE.INTRA.DIHEDRAL.0>  (16) 
3.78927

>  <SCORE.INTRA.POLAR>  (16) 
0

>  <SCORE.INTRA.POLAR.0>  (16) 
0

>  <SCORE.INTRA.REPUL>  (16) 
0

>  <SCORE.INTRA.REPUL.0>  (16) 
0

>  <SCORE.INTRA.VDW>  (16) 
1.34287

>  <SCORE.INTRA.VDW.0>  (16) 
1.02728

>  <SCORE.INTRA.norm>  (16) 
0.120917

>  <SCORE.RESTR>  (16) 
0.185231

>  <SCORE.RESTR.CAVITY>  (16) 
0.185231

>  <SCORE.RESTR.norm>  (16) 
0.00841959

>  <SCORE.SYSTEM>  (16) 
-1.69781

>  <SCORE.SYSTEM.CONST>  (16) 
0

>  <SCORE.SYSTEM.DIHEDRAL>  (16) 
2.54437

>  <SCORE.SYSTEM.POLAR>  (16) 
-0.566095

>  <SCORE.SYSTEM.REPUL>  (16) 
0.223989

>  <SCORE.SYSTEM.VDW>  (16) 
-2.16522

>  <SCORE.SYSTEM.norm>  (16) 
-0.0771734

>  <SCORE.heavy>  (16) 
22

>  <SCORE.norm>  (16) 
-0.345122

$$$$
denovo_401
     RDKit          3D

 22 23  0  0  0  0  0  0  0  0999 V2000
  -17.1858    1.7197  -16.7111 C   0  0  0  0  0  0  0  0  0  0  0  0
  -17.1362    3.1325  -16.8601 O   0  0  0  0  0  0  0  0  0  0  0  0
  -17.9076    3.7966  -15.8566 C   0  0  0  0  0  0  0  0  0  0  0  0
  -17.7746    5.3279  -16.0065 C   0  0  2  0  0  0  0  0  0  0  0  0
  -18.3209    6.0111  -14.7576 C   0  0  0  0  0  0  0  0  0  0  0  0
  -17.4684    6.7931  -13.9636 C   0  0  0  0  0  0  0  0  0  0  0  0
  -17.9469    7.4252  -12.8147 C   0  0  0  0  0  0  0  0  0  0  0  0
  -19.2820    7.2833  -12.4441 C   0  0  0  0  0  0  0  0  0  0  0  0
  -20.1399    6.5090  -13.2217 C   0  0  0  0  0  0  0  0  0  0  0  0
  -19.6636    5.8756  -14.3710 C   0  0  0  0  0  0  0  0  0  0  0  0
  -18.4474    5.8654  -17.2954 C   0  0  2  0  0  0  0  0  0  0  0  0
  -17.5337    5.9061  -18.5247 C   0  0  0  0  0  0  0  0  0  0  0  0
  -18.0845    7.0122  -19.4300 C   0  0  0  0  0  0  0  0  0  0  0  0
  -19.2060    7.7014  -18.6481 C   0  0  2  0  0  0  0  0  0  0  0  0
  -19.3161    9.2264  -18.8188 C   0  0  0  0  0  0  0  0  0  0  0  0
  -20.7289    9.8445  -19.0980 C   0  0  0  0  0  0  0  0  0  0  0  0
  -21.8222    8.9200  -18.5246 C   0  0  0  0  0  0  0  0  0  0  0  0
  -20.7801   11.1797  -18.3125 C   0  0  0  0  0  0  0  0  0  0  0  0
  -20.9801   10.1082  -20.6162 C   0  0  1  0  0  0  0  0  0  0  0  0
  -20.2119   11.2891  -21.2107 C   0  0  0  0  0  0  0  0  0  0  0  0
  -20.6246    8.9675  -21.3994 O   0  0  0  0  0  0  0  0  0  0  0  0
  -18.9036    7.3245  -17.1918 C   0  0  0  0  0  0  0  0  0  0  0  0
  1  2  1  0
  2  3  1  0
  4  3  1  1
  4  5  1  0
  5  6  2  0
  6  7  1  0
  7  8  2  0
  8  9  1  0
  9 10  2  0
  4 11  1  0
 11 12  1  6
 12 13  1  0
 13 14  1  0
 14 15  1  1
 15 16  1  0
 16 17  1  0
 16 18  1  0
 16 19  1  0
 19 20  1  6
 19 21  1  0
 14 22  1  0
 10  5  1  0
 22 11  1  0
M  END
>  <CHROM.0>  (17) 
178.37212899,62.66900997,117.12136125,-65.55347836,179.61732179,-149.29856999
178.63513045,-65.51761919,-75.29831988,65.41087762

>  <CHROM.1>  (17) 
177.21118042,-166.80251263,118.01957639,-89.59128835,132.86852944,26.02296933
-73.01988585,75.07197369,-19.08019284,7.14526772,-17.20589965,-0.74272066
1.11116219,-1.56205905

>  <Name>  (17) 
denovo_401

>  <RI>  (17) 
-1.5254e+09

>  <Rbt.Current_Directory>  (17) 
/tmp/claude-0/-home-user-Rare-cancers/1af35c7f-7dc4-53ce-91d2-1631a2a10a85/scratchpad/smwork/cross/dock_8XTT-model8

>  <Rbt.Executable>  (17) 
rbdock - v25.07-alpha

>  <Rbt.Library>  (17) 
libRbt.so (25.07, Buildalpha)

>  <Rbt.Parameter_File>  (17) 
/tmp/claude-0/-home-user-Rare-cancers/1af35c7f-7dc4-53ce-91d2-1631a2a10a85/scratchpad/rdroot/share/rDock/data/scripts/dock.prm

>  <Rbt.Receptor>  (17) 
rec.prm

>  <SCORE>  (17) 
-6.1718

>  <SCORE.INTER>  (17) 
-8.42773

>  <SCORE.INTER.CONST>  (17) 
1

>  <SCORE.INTER.POLAR>  (17) 
-0.894427

>  <SCORE.INTER.REPUL>  (17) 
0.011273

>  <SCORE.INTER.ROT>  (17) 
7

>  <SCORE.INTER.VDW>  (17) 
-17.843

>  <SCORE.INTER.norm>  (17) 
-0.383079

>  <SCORE.INTRA>  (17) 
7.94319

>  <SCORE.INTRA.DIHEDRAL>  (17) 
12.8473

>  <SCORE.INTRA.DIHEDRAL.0>  (17) 
3.78927

>  <SCORE.INTRA.POLAR>  (17) 
0

>  <SCORE.INTRA.POLAR.0>  (17) 
0

>  <SCORE.INTRA.REPUL>  (17) 
0

>  <SCORE.INTRA.REPUL.0>  (17) 
0

>  <SCORE.INTRA.VDW>  (17) 
1.51953

>  <SCORE.INTRA.VDW.0>  (17) 
1.02728

>  <SCORE.INTRA.norm>  (17) 
0.361054

>  <SCORE.RESTR>  (17) 
0.589999

>  <SCORE.RESTR.CAVITY>  (17) 
0.589999

>  <SCORE.RESTR.norm>  (17) 
0.0268181

>  <SCORE.SYSTEM>  (17) 
-6.27727

>  <SCORE.SYSTEM.CONST>  (17) 
0

>  <SCORE.SYSTEM.DIHEDRAL>  (17) 
10.5963

>  <SCORE.SYSTEM.POLAR>  (17) 
-2.09032

>  <SCORE.SYSTEM.VDW>  (17) 
-4.46832

>  <SCORE.SYSTEM.norm>  (17) 
-0.285331

>  <SCORE.heavy>  (17) 
22

>  <SCORE.norm>  (17) 
-0.280537

$$$$
denovo_401
     RDKit          3D

 22 23  0  0  0  0  0  0  0  0999 V2000
   -0.8574   10.2117  -20.2781 C   0  0  0  0  0  0  0  0  0  0  0  0
   -1.8967   11.0914  -19.8701 O   0  0  0  0  0  0  0  0  0  0  0  0
   -1.3865   12.2066  -19.1358 C   0  0  0  0  0  0  0  0  0  0  0  0
   -2.5315   13.1784  -18.7758 C   0  0  2  0  0  0  0  0  0  0  0  0
   -1.9471   14.4571  -18.1853 C   0  0  0  0  0  0  0  0  0  0  0  0
   -1.8208   14.5859  -16.7938 C   0  0  0  0  0  0  0  0  0  0  0  0
   -1.2911   15.7487  -16.2319 C   0  0  0  0  0  0  0  0  0  0  0  0
   -0.8821   16.7973  -17.0524 C   0  0  0  0  0  0  0  0  0  0  0  0
   -1.0026   16.6845  -18.4355 C   0  0  0  0  0  0  0  0  0  0  0  0
   -1.5324   15.5226  -18.9998 C   0  0  0  0  0  0  0  0  0  0  0  0
   -3.5857   12.5414  -17.8348 C   0  0  2  0  0  0  0  0  0  0  0  0
   -3.0285   11.4918  -16.8676 C   0  0  0  0  0  0  0  0  0  0  0  0
   -4.1918   10.5494  -16.5432 C   0  0  0  0  0  0  0  0  0  0  0  0
   -5.3583   10.9663  -17.4431 C   0  0  2  0  0  0  0  0  0  0  0  0
   -6.2258    9.8260  -18.0035 C   0  0  0  0  0  0  0  0  0  0  0  0
   -7.7290   10.1257  -18.3304 C   0  0  0  0  0  0  0  0  0  0  0  0
   -8.4033    8.8534  -18.8831 C   0  0  0  0  0  0  0  0  0  0  0  0
   -8.4057   10.4696  -16.9791 C   0  0  0  0  0  0  0  0  0  0  0  0
   -7.9013   11.3118  -19.3310 C   0  0  1  0  0  0  0  0  0  0  0  0
   -9.3393   11.5973  -19.7653 C   0  0  0  0  0  0  0  0  0  0  0  0
   -7.4054   12.5293  -18.7717 O   0  0  0  0  0  0  0  0  0  0  0  0
   -4.6718   11.7491  -18.5701 C   0  0  0  0  0  0  0  0  0  0  0  0
  1  2  1  0
  2  3  1  0
  4  3  1  1
  4  5  1  0
  5  6  2  0
  6  7  1  0
  7  8  2  0
  8  9  1  0
  9 10  2  0
  4 11  1  0
 11 12  1  1
 12 13  1  0
 13 14  1  0
 14 15  1  6
 15 16  1  0
 16 17  1  0
 16 18  1  0
 16 19  1  0
 19 20  1  1
 19 21  1  0
 14 22  1  0
 10  5  1  0
 22 11  1  0
M  END
>  <CHROM.0>  (18) 
-178.47923628,65.44171929,179.71769890,-178.05030323,-177.59992608,91.31207596
-35.14359693,-60.14067492,-75.46278073,-179.68708714

>  <CHROM.1>  (18) 
176.92992967,-171.39071469,-93.97572015,31.39970264,151.76598339,179.70994640
176.10844364,-61.05848564,-4.23652953,12.30070701,-18.26427587,-0.57678080
-0.11542267,-2.84658234

>  <Name>  (18) 
denovo_401

>  <RI>  (18) 
-1.5254e+09

>  <Rbt.Current_Directory>  (18) 
/tmp/claude-0/-home-user-Rare-cancers/1af35c7f-7dc4-53ce-91d2-1631a2a10a85/scratchpad/smwork/cross/dock_8XTT-model8

>  <Rbt.Executable>  (18) 
rbdock - v25.07-alpha

>  <Rbt.Library>  (18) 
libRbt.so (25.07, Buildalpha)

>  <Rbt.Parameter_File>  (18) 
/tmp/claude-0/-home-user-Rare-cancers/1af35c7f-7dc4-53ce-91d2-1631a2a10a85/scratchpad/rdroot/share/rDock/data/scripts/dock.prm

>  <Rbt.Receptor>  (18) 
rec.prm

>  <SCORE>  (18) 
-5.6524

>  <SCORE.INTER>  (18) 
-8.78796

>  <SCORE.INTER.CONST>  (18) 
1

>  <SCORE.INTER.POLAR>  (18) 
0

>  <SCORE.INTER.REPUL>  (18) 
0

>  <SCORE.INTER.ROT>  (18) 
7

>  <SCORE.INTER.VDW>  (18) 
-21.188

>  <SCORE.INTER.norm>  (18) 
-0.399453

>  <SCORE.INTRA>  (18) 
4.72742

>  <SCORE.INTRA.DIHEDRAL>  (18) 
3.30305

>  <SCORE.INTRA.DIHEDRAL.0>  (18) 
3.78927

>  <SCORE.INTRA.POLAR>  (18) 
0

>  <SCORE.INTRA.POLAR.0>  (18) 
0

>  <SCORE.INTRA.REPUL>  (18) 
0

>  <SCORE.INTRA.REPUL.0>  (18) 
0

>  <SCORE.INTRA.VDW>  (18) 
3.0759

>  <SCORE.INTRA.VDW.0>  (18) 
1.02728

>  <SCORE.INTRA.norm>  (18) 
0.214883

>  <SCORE.RESTR>  (18) 
0.0245948

>  <SCORE.RESTR.CAVITY>  (18) 
0.0245948

>  <SCORE.RESTR.norm>  (18) 
0.00111794

>  <SCORE.SYSTEM>  (18) 
-1.61641

>  <SCORE.SYSTEM.CONST>  (18) 
0

>  <SCORE.SYSTEM.DIHEDRAL>  (18) 
5.86026

>  <SCORE.SYSTEM.POLAR>  (18) 
-0.815791

>  <SCORE.SYSTEM.REPUL>  (18) 
0.172837

>  <SCORE.SYSTEM.VDW>  (18) 
-2.63703

>  <SCORE.SYSTEM.norm>  (18) 
-0.0734732

>  <SCORE.heavy>  (18) 
22

>  <SCORE.norm>  (18) 
-0.256925

$$$$
denovo_401
     RDKit          3D

 22 23  0  0  0  0  0  0  0  0999 V2000
    0.5243    9.7939  -19.7175 C   0  0  0  0  0  0  0  0  0  0  0  0
   -0.6904   10.5309  -19.7608 O   0  0  0  0  0  0  0  0  0  0  0  0
   -0.7434   11.5221  -18.7322 C   0  0  0  0  0  0  0  0  0  0  0  0
   -2.0471   12.3421  -18.8470 C   0  0  2  0  0  0  0  0  0  0  0  0
   -1.9433   13.5881  -17.9742 C   0  0  0  0  0  0  0  0  0  0  0  0
   -1.8399   14.8515  -18.5756 C   0  0  0  0  0  0  0  0  0  0  0  0
   -1.7411   16.0051  -17.7957 C   0  0  0  0  0  0  0  0  0  0  0  0
   -1.7433   15.9109  -16.4060 C   0  0  0  0  0  0  0  0  0  0  0  0
   -1.8440   14.6633  -15.7947 C   0  0  0  0  0  0  0  0  0  0  0  0
   -1.9425   13.5083  -16.5726 C   0  0  0  0  0  0  0  0  0  0  0  0
   -3.3109   11.5099  -18.5110 C   0  0  2  0  0  0  0  0  0  0  0  0
   -3.5683   10.3291  -19.4529 C   0  0  0  0  0  0  0  0  0  0  0  0
   -5.0786   10.0753  -19.4172 C   0  0  0  0  0  0  0  0  0  0  0  0
   -5.6937   11.2042  -18.5857 C   0  0  2  0  0  0  0  0  0  0  0  0
   -7.0542   11.7384  -19.0656 C   0  0  0  0  0  0  0  0  0  0  0  0
   -8.3534   11.0031  -18.5885 C   0  0  0  0  0  0  0  0  0  0  0  0
   -8.5433   11.2160  -17.0728 C   0  0  0  0  0  0  0  0  0  0  0  0
   -9.5345   11.6963  -19.3143 C   0  0  0  0  0  0  0  0  0  0  0  0
   -8.3396    9.4788  -18.9267 C   0  0  1  0  0  0  0  0  0  0  0  0
   -7.4811    8.6122  -18.0048 C   0  0  0  0  0  0  0  0  0  0  0  0
   -9.6579    8.9310  -18.8739 O   0  0  0  0  0  0  0  0  0  0  0  0
   -4.6194   12.2988  -18.6279 C   0  0  0  0  0  0  0  0  0  0  0  0
  1  2  1  0
  2  3  1  0
  4  3  1  1
  4  5  1  0
  5  6  2  0
  6  7  1  0
  7  8  2  0
  8  9  1  0
  9 10  2  0
  4 11  1  0
 11 12  1  6
 12 13  1  0
 13 14  1  0
 14 15  1  6
 15 16  1  0
 16 17  1  0
 16 18  1  0
 16 19  1  0
 19 20  1  1
 19 21  1  0
 14 22  1  0
 10  5  1  0
 22 11  1  0
M  END
>  <CHROM.0>  (19) 
60.79166878,68.94298436,71.76025408,-63.32187886,179.47116538,91.59275048
-67.72275146,68.26806128,-75.88119705,178.70220663

>  <CHROM.1>  (19) 
177.57372544,-166.64316141,110.16859172,-62.77578244,85.81566195,68.06082761
77.50407729,169.99386991,-4.40716582,11.74645920,-18.42802233,-0.41351038
-0.10319111,-2.71594793

>  <Name>  (19) 
denovo_401

>  <RI>  (19) 
-1.5254e+09

>  <Rbt.Current_Directory>  (19) 
/tmp/claude-0/-home-user-Rare-cancers/1af35c7f-7dc4-53ce-91d2-1631a2a10a85/scratchpad/smwork/cross/dock_8XTT-model8

>  <Rbt.Executable>  (19) 
rbdock - v25.07-alpha

>  <Rbt.Library>  (19) 
libRbt.so (25.07, Buildalpha)

>  <Rbt.Parameter_File>  (19) 
/tmp/claude-0/-home-user-Rare-cancers/1af35c7f-7dc4-53ce-91d2-1631a2a10a85/scratchpad/rdroot/share/rDock/data/scripts/dock.prm

>  <Rbt.Receptor>  (19) 
rec.prm

>  <SCORE>  (19) 
-5.4661

>  <SCORE.INTER>  (19) 
-5.68514

>  <SCORE.INTER.CONST>  (19) 
1

>  <SCORE.INTER.POLAR>  (19) 
0

>  <SCORE.INTER.REPUL>  (19) 
0

>  <SCORE.INTER.ROT>  (19) 
7

>  <SCORE.INTER.VDW>  (19) 
-18.0851

>  <SCORE.INTER.norm>  (19) 
-0.258415

>  <SCORE.INTRA>  (19) 
2.98287

>  <SCORE.INTRA.DIHEDRAL>  (19) 
2.00455

>  <SCORE.INTRA.DIHEDRAL.0>  (19) 
3.78927

>  <SCORE.INTRA.POLAR>  (19) 
0

>  <SCORE.INTRA.POLAR.0>  (19) 
0

>  <SCORE.INTRA.REPUL>  (19) 
0

>  <SCORE.INTRA.REPUL.0>  (19) 
0

>  <SCORE.INTRA.VDW>  (19) 
1.98059

>  <SCORE.INTRA.VDW.0>  (19) 
1.02728

>  <SCORE.INTRA.norm>  (19) 
0.135585

>  <SCORE.RESTR>  (19) 
0.135632

>  <SCORE.RESTR.CAVITY>  (19) 
0.135632

>  <SCORE.RESTR.norm>  (19) 
0.00616507

>  <SCORE.SYSTEM>  (19) 
-2.89943

>  <SCORE.SYSTEM.CONST>  (19) 
0

>  <SCORE.SYSTEM.DIHEDRAL>  (19) 
4.8397

>  <SCORE.SYSTEM.POLAR>  (19) 
-0.855932

>  <SCORE.SYSTEM.REPUL>  (19) 
0.0111459

>  <SCORE.SYSTEM.VDW>  (19) 
-2.46484

>  <SCORE.SYSTEM.norm>  (19) 
-0.131792

>  <SCORE.heavy>  (19) 
22

>  <SCORE.norm>  (19) 
-0.248458

$$$$
denovo_401
     RDKit          3D

 22 23  0  0  0  0  0  0  0  0999 V2000
   -2.1399   15.1415  -15.9863 C   0  0  0  0  0  0  0  0  0  0  0  0
   -2.3582   13.7372  -16.0128 O   0  0  0  0  0  0  0  0  0  0  0  0
   -1.9670   13.1656  -17.2631 C   0  0  0  0  0  0  0  0  0  0  0  0
   -2.2344   11.6445  -17.2623 C   0  0  2  0  0  0  0  0  0  0  0  0
   -1.8292   11.0558  -18.6093 C   0  0  0  0  0  0  0  0  0  0  0  0
   -2.7668   10.9942  -19.6514 C   0  0  0  0  0  0  0  0  0  0  0  0
   -2.4181   10.4568  -20.8916 C   0  0  0  0  0  0  0  0  0  0  0  0
   -1.1295    9.9735  -21.1060 C   0  0  0  0  0  0  0  0  0  0  0  0
   -0.1883   10.0267  -20.0805 C   0  0  0  0  0  0  0  0  0  0  0  0
   -0.5348   10.5635  -18.8392 C   0  0  0  0  0  0  0  0  0  0  0  0
   -3.6999   11.2931  -16.8999 C   0  0  2  0  0  0  0  0  0  0  0  0
   -4.0670    9.8165  -17.0805 C   0  0  0  0  0  0  0  0  0  0  0  0
   -5.5765    9.7799  -17.3381 C   0  0  0  0  0  0  0  0  0  0  0  0
   -6.0361   11.2351  -17.4615 C   0  0  2  0  0  0  0  0  0  0  0  0
   -7.1237   11.5179  -18.5122 C   0  0  0  0  0  0  0  0  0  0  0  0
   -8.5967   11.7297  -18.0210 C   0  0  0  0  0  0  0  0  0  0  0  0
   -8.7756   13.1801  -17.5277 C   0  0  0  0  0  0  0  0  0  0  0  0
   -9.4998   11.5398  -19.2662 C   0  0  0  0  0  0  0  0  0  0  0  0
   -9.0086   10.7199  -16.9037 C   0  0  1  0  0  0  0  0  0  0  0  0
  -10.2983   11.0613  -16.1567 C   0  0  0  0  0  0  0  0  0  0  0  0
   -9.1952    9.4096  -17.4416 O   0  0  0  0  0  0  0  0  0  0  0  0
   -4.7392   11.9881  -17.7859 C   0  0  0  0  0  0  0  0  0  0  0  0
  1  2  1  0
  2  3  1  0
  4  3  1  6
  4  5  1  0
  5  6  2  0
  6  7  1  0
  7  8  2  0
  8  9  1  0
  9 10  2  0
  4 11  1  0
 11 12  1  6
 12 13  1  0
 13 14  1  0
 14 15  1  6
 15 16  1  0
 16 17  1  0
 16 18  1  0
 16 19  1  0
 19 20  1  6
 19 21  1  0
 14 22  1  0
 10  5  1  0
 22 11  1  0
M  END
>  <CHROM.0>  (20) 
-57.68862984,159.67918050,71.22240528,-67.58708664,-175.56778860,-31.16119720
-57.26452201,-62.48505965,-179.11364117,66.57891609

>  <CHROM.1>  (20) 
-179.29019316,179.22971801,-89.51924980,171.64565481,102.83706515,81.43217036
166.59032511,65.82167578,-4.84199073,11.39568723,-17.94938661,-0.07538995
0.14117907,0.74114987

>  <Name>  (20) 
denovo_401

>  <RI>  (20) 
-1.5254e+09

>  <Rbt.Current_Directory>  (20) 
/tmp/claude-0/-home-user-Rare-cancers/1af35c7f-7dc4-53ce-91d2-1631a2a10a85/scratchpad/smwork/cross/dock_8XTT-model8

>  <Rbt.Executable>  (20) 
rbdock - v25.07-alpha

>  <Rbt.Library>  (20) 
libRbt.so (25.07, Buildalpha)

>  <Rbt.Parameter_File>  (20) 
/tmp/claude-0/-home-user-Rare-cancers/1af35c7f-7dc4-53ce-91d2-1631a2a10a85/scratchpad/rdroot/share/rDock/data/scripts/dock.prm

>  <Rbt.Receptor>  (20) 
rec.prm

>  <SCORE>  (20) 
-4.9280

>  <SCORE.INTER>  (20) 
-7.93387

>  <SCORE.INTER.CONST>  (20) 
1

>  <SCORE.INTER.POLAR>  (20) 
-0.446596

>  <SCORE.INTER.REPUL>  (20) 
0

>  <SCORE.INTER.ROT>  (20) 
7

>  <SCORE.INTER.VDW>  (20) 
-18.8154

>  <SCORE.INTER.norm>  (20) 
-0.360631

>  <SCORE.INTRA>  (20) 
5.02257

>  <SCORE.INTRA.DIHEDRAL>  (20) 
5.29819

>  <SCORE.INTRA.DIHEDRAL.0>  (20) 
3.78927

>  <SCORE.INTRA.POLAR>  (20) 
0

>  <SCORE.INTRA.POLAR.0>  (20) 
0

>  <SCORE.INTRA.REPUL>  (20) 
0

>  <SCORE.INTRA.REPUL.0>  (20) 
0

>  <SCORE.INTRA.VDW>  (20) 
2.37348

>  <SCORE.INTRA.VDW.0>  (20) 
1.02728

>  <SCORE.INTRA.norm>  (20) 
0.228299

>  <SCORE.RESTR>  (20) 
0.0231797

>  <SCORE.RESTR.CAVITY>  (20) 
0.0231797

>  <SCORE.RESTR.norm>  (20) 
0.00105362

>  <SCORE.SYSTEM>  (20) 
-2.03992

>  <SCORE.SYSTEM.CONST>  (20) 
0

>  <SCORE.SYSTEM.DIHEDRAL>  (20) 
4.79275

>  <SCORE.SYSTEM.POLAR>  (20) 
-0.900901

>  <SCORE.SYSTEM.REPUL>  (20) 
0.0690945

>  <SCORE.SYSTEM.VDW>  (20) 
-1.71871

>  <SCORE.SYSTEM.norm>  (20) 
-0.0927236

>  <SCORE.heavy>  (20) 
22

>  <SCORE.norm>  (20) 
-0.224002

$$$$
denovo_401
     RDKit          3D

 22 23  0  0  0  0  0  0  0  0999 V2000
   -0.3039   10.3560  -19.4184 C   0  0  0  0  0  0  0  0  0  0  0  0
   -1.4314   10.9079  -18.7518 O   0  0  0  0  0  0  0  0  0  0  0  0
   -2.4367   11.3304  -19.6761 C   0  0  0  0  0  0  0  0  0  0  0  0
   -3.5589   12.0897  -18.9350 C   0  0  2  0  0  0  0  0  0  0  0  0
   -2.9571   13.2543  -18.1562 C   0  0  0  0  0  0  0  0  0  0  0  0
   -2.8716   14.5205  -18.7547 C   0  0  0  0  0  0  0  0  0  0  0  0
   -2.3219   15.6000  -18.0608 C   0  0  0  0  0  0  0  0  0  0  0  0
   -1.8500   15.4279  -16.7617 C   0  0  0  0  0  0  0  0  0  0  0  0
   -1.9270   14.1764  -16.1550 C   0  0  0  0  0  0  0  0  0  0  0  0
   -2.4760   13.0953  -16.8470 C   0  0  0  0  0  0  0  0  0  0  0  0
   -4.4069   11.1667  -18.0230 C   0  0  2  0  0  0  0  0  0  0  0  0
   -4.5974    9.7424  -18.5545 C   0  0  0  0  0  0  0  0  0  0  0  0
   -5.9114    9.2341  -17.9530 C   0  0  0  0  0  0  0  0  0  0  0  0
   -6.5422   10.4171  -17.2138 C   0  0  2  0  0  0  0  0  0  0  0  0
   -8.0739   10.5336  -17.2990 C   0  0  0  0  0  0  0  0  0  0  0  0
   -8.7716   11.7314  -16.5679 C   0  0  0  0  0  0  0  0  0  0  0  0
  -10.0900   11.2515  -15.9274 C   0  0  0  0  0  0  0  0  0  0  0  0
   -7.8169   12.1546  -15.4225 C   0  0  0  0  0  0  0  0  0  0  0  0
   -9.0366   12.9425  -17.5170 C   0  0  1  0  0  0  0  0  0  0  0  0
   -9.7502   12.6035  -18.8261 C   0  0  0  0  0  0  0  0  0  0  0  0
   -9.8388   13.9327  -16.8713 O   0  0  0  0  0  0  0  0  0  0  0  0
   -5.8552   11.6348  -17.8459 C   0  0  0  0  0  0  0  0  0  0  0  0
  1  2  1  0
  2  3  1  0
  4  3  1  1
  4  5  1  0
  5  6  2  0
  6  7  1  0
  7  8  2  0
  8  9  1  0
  9 10  2  0
  4 11  1  0
 11 12  1  6
 12 13  1  0
 13 14  1  0
 14 15  1  6
 15 16  1  0
 16 17  1  0
 16 18  1  0
 16 19  1  0
 19 20  1  6
 19 21  1  0
 14 22  1  0
 10  5  1  0
 22 11  1  0
M  END
>  <CHROM.0>  (21) 
-176.23084373,62.35661388,179.86937080,-61.96942500,-177.21544721,-25.79586555
43.54997405,-57.74342214,-72.31205334,66.06509886

>  <CHROM.1>  (21) 
-172.57607174,55.76352113,92.05399765,-33.98304711,-179.62215279,-141.07483752
50.94589260,154.38507403,-5.20184333,12.15392131,-17.71034482,-0.03438476
-0.19756324,-2.86329988

>  <Name>  (21) 
denovo_401

>  <RI>  (21) 
-1.5254e+09

>  <Rbt.Current_Directory>  (21) 
/tmp/claude-0/-home-user-Rare-cancers/1af35c7f-7dc4-53ce-91d2-1631a2a10a85/scratchpad/smwork/cross/dock_8XTT-model8

>  <Rbt.Executable>  (21) 
rbdock - v25.07-alpha

>  <Rbt.Library>  (21) 
libRbt.so (25.07, Buildalpha)

>  <Rbt.Parameter_File>  (21) 
/tmp/claude-0/-home-user-Rare-cancers/1af35c7f-7dc4-53ce-91d2-1631a2a10a85/scratchpad/rdroot/share/rDock/data/scripts/dock.prm

>  <Rbt.Receptor>  (21) 
rec.prm

>  <SCORE>  (21) 
-4.5000

>  <SCORE.INTER>  (21) 
-10.2232

>  <SCORE.INTER.CONST>  (21) 
1

>  <SCORE.INTER.POLAR>  (21) 
-0.469643

>  <SCORE.INTER.REPUL>  (21) 
0

>  <SCORE.INTER.ROT>  (21) 
7

>  <SCORE.INTER.VDW>  (21) 
-21.0264

>  <SCORE.INTER.norm>  (21) 
-0.464691

>  <SCORE.INTRA>  (21) 
7.05844

>  <SCORE.INTRA.DIHEDRAL>  (21) 
7.62842

>  <SCORE.INTRA.DIHEDRAL.0>  (21) 
3.78927

>  <SCORE.INTRA.POLAR>  (21) 
0

>  <SCORE.INTRA.POLAR.0>  (21) 
0

>  <SCORE.INTRA.REPUL>  (21) 
0

>  <SCORE.INTRA.REPUL.0>  (21) 
0

>  <SCORE.INTRA.VDW>  (21) 
3.24423

>  <SCORE.INTRA.VDW.0>  (21) 
1.02728

>  <SCORE.INTRA.norm>  (21) 
0.320838

>  <SCORE.RESTR>  (21) 
0

>  <SCORE.RESTR.CAVITY>  (21) 
0

>  <SCORE.RESTR.norm>  (21) 
0

>  <SCORE.SYSTEM>  (21) 
-1.33519

>  <SCORE.SYSTEM.CONST>  (21) 
0

>  <SCORE.SYSTEM.DIHEDRAL>  (21) 
4.47348

>  <SCORE.SYSTEM.POLAR>  (21) 
-1.15125

>  <SCORE.SYSTEM.VDW>  (21) 
0.34232

>  <SCORE.SYSTEM.norm>  (21) 
-0.0606906

>  <SCORE.heavy>  (21) 
22

>  <SCORE.norm>  (21) 
-0.204544

$$$$
denovo_401
     RDKit          3D

 22 23  0  0  0  0  0  0  0  0999 V2000
   -1.8964   14.8464  -16.1720 C   0  0  0  0  0  0  0  0  0  0  0  0
   -1.5287   13.5034  -15.8867 O   0  0  0  0  0  0  0  0  0  0  0  0
   -2.6122   12.5994  -16.1148 C   0  0  0  0  0  0  0  0  0  0  0  0
   -2.4291   11.8760  -17.4669 C   0  0  2  0  0  0  0  0  0  0  0  0
   -2.2189   12.9064  -18.5711 C   0  0  0  0  0  0  0  0  0  0  0  0
   -0.9483   13.0596  -19.1463 C   0  0  0  0  0  0  0  0  0  0  0  0
   -0.7330   13.9986  -20.1566 C   0  0  0  0  0  0  0  0  0  0  0  0
   -1.7833   14.7965  -20.6038 C   0  0  0  0  0  0  0  0  0  0  0  0
   -3.0499   14.6567  -20.0414 C   0  0  0  0  0  0  0  0  0  0  0  0
   -3.2677   13.7186  -19.0307 C   0  0  0  0  0  0  0  0  0  0  0  0
   -3.5986   10.9132  -17.7956 C   0  0  2  0  0  0  0  0  0  0  0  0
   -3.5152   10.2534  -19.1759 C   0  0  0  0  0  0  0  0  0  0  0  0
   -4.9560    9.9276  -19.5815 C   0  0  0  0  0  0  0  0  0  0  0  0
   -5.8627   10.5418  -18.5115 C   0  0  2  0  0  0  0  0  0  0  0  0
   -7.1817   11.1573  -19.0096 C   0  0  0  0  0  0  0  0  0  0  0  0
   -8.3663   11.3021  -17.9938 C   0  0  0  0  0  0  0  0  0  0  0  0
   -9.5850   11.9266  -18.7035 C   0  0  0  0  0  0  0  0  0  0  0  0
   -8.7529    9.8617  -17.5715 C   0  0  0  0  0  0  0  0  0  0  0  0
   -7.9797   12.1417  -16.7356 C   0  0  1  0  0  0  0  0  0  0  0  0
   -9.1267   12.4367  -15.7685 C   0  0  0  0  0  0  0  0  0  0  0  0
   -6.9726   11.4798  -15.9683 O   0  0  0  0  0  0  0  0  0  0  0  0
   -4.9667   11.6008  -17.8557 C   0  0  0  0  0  0  0  0  0  0  0  0
  1  2  1  0
  2  3  1  0
  4  3  1  1
  4  5  1  0
  5  6  2  0
  6  7  1  0
  7  8  2  0
  8  9  1  0
  9 10  2  0
  4 11  1  0
 11 12  1  6
 12 13  1  0
 13 14  1  0
 14 15  1  6
 15 16  1  0
 16 17  1  0
 16 18  1  0
 16 19  1  0
 19 20  1  1
 19 21  1  0
 14 22  1  0
 10  5  1  0
 22 11  1  0
M  END
>  <CHROM.0>  (22) 
-64.43183848,66.84856426,74.26444808,-177.57208822,-177.00749301,90.00254955
-33.90599116,-179.01444209,-72.47921283,66.33331350

>  <CHROM.1>  (22) 
101.22450969,-53.03959950,107.75972733,175.53522908,157.20364024,-179.50713706
174.32320421,171.28659246,-4.67437623,12.23692462,-18.00881511,-0.03148814
0.37360337,1.25000457

>  <Name>  (22) 
denovo_401

>  <RI>  (22) 
-1.5254e+09

>  <Rbt.Current_Directory>  (22) 
/tmp/claude-0/-home-user-Rare-cancers/1af35c7f-7dc4-53ce-91d2-1631a2a10a85/scratchpad/smwork/cross/dock_8XTT-model8

>  <Rbt.Executable>  (22) 
rbdock - v25.07-alpha

>  <Rbt.Library>  (22) 
libRbt.so (25.07, Buildalpha)

>  <Rbt.Parameter_File>  (22) 
/tmp/claude-0/-home-user-Rare-cancers/1af35c7f-7dc4-53ce-91d2-1631a2a10a85/scratchpad/rdroot/share/rDock/data/scripts/dock.prm

>  <Rbt.Receptor>  (22) 
rec.prm

>  <SCORE>  (22) 
-4.4029

>  <SCORE.INTER>  (22) 
-5.78267

>  <SCORE.INTER.CONST>  (22) 
1

>  <SCORE.INTER.POLAR>  (22) 
0

>  <SCORE.INTER.REPUL>  (22) 
0

>  <SCORE.INTER.ROT>  (22) 
7

>  <SCORE.INTER.VDW>  (22) 
-18.1827

>  <SCORE.INTER.norm>  (22) 
-0.262849

>  <SCORE.INTRA>  (22) 
5.21449

>  <SCORE.INTRA.DIHEDRAL>  (22) 
5.71099

>  <SCORE.INTRA.DIHEDRAL.0>  (22) 
3.78927

>  <SCORE.INTRA.POLAR>  (22) 
0

>  <SCORE.INTRA.POLAR.0>  (22) 
0

>  <SCORE.INTRA.REPUL>  (22) 
0

>  <SCORE.INTRA.REPUL.0>  (22) 
0

>  <SCORE.INTRA.VDW>  (22) 
2.359

>  <SCORE.INTRA.VDW.0>  (22) 
1.02728

>  <SCORE.INTRA.norm>  (22) 
0.237022

>  <SCORE.RESTR>  (22) 
0.0577348

>  <SCORE.RESTR.CAVITY>  (22) 
0.0577348

>  <SCORE.RESTR.norm>  (22) 
0.00262431

>  <SCORE.SYSTEM>  (22) 
-3.89249

>  <SCORE.SYSTEM.CONST>  (22) 
0

>  <SCORE.SYSTEM.DIHEDRAL>  (22) 
6.90255

>  <SCORE.SYSTEM.POLAR>  (22) 
-1.61447

>  <SCORE.SYSTEM.REPUL>  (22) 
0.172837

>  <SCORE.SYSTEM.VDW>  (22) 
-2.71875

>  <SCORE.SYSTEM.norm>  (22) 
-0.176931

>  <SCORE.heavy>  (22) 
22

>  <SCORE.norm>  (22) 
-0.200133

$$$$
denovo_401
     RDKit          3D

 22 23  0  0  0  0  0  0  0  0999 V2000
   -9.3666    8.0827  -19.9792 C   0  0  0  0  0  0  0  0  0  0  0  0
   -9.0400    9.0984  -19.0400 O   0  0  0  0  0  0  0  0  0  0  0  0
   -8.1067    8.6332  -18.0623 C   0  0  0  0  0  0  0  0  0  0  0  0
   -7.4380    9.8293  -17.3501 C   0  0  2  0  0  0  0  0  0  0  0  0
   -8.4105   11.0029  -17.3044 C   0  0  0  0  0  0  0  0  0  0  0  0
   -9.1177   11.2741  -16.1233 C   0  0  0  0  0  0  0  0  0  0  0  0
  -10.0148   12.3418  -16.0602 C   0  0  0  0  0  0  0  0  0  0  0  0
  -10.2174   13.1507  -17.1758 C   0  0  0  0  0  0  0  0  0  0  0  0
   -9.5234   12.8929  -18.3557 C   0  0  0  0  0  0  0  0  0  0  0  0
   -8.6259   11.8256  -18.4213 C   0  0  0  0  0  0  0  0  0  0  0  0
   -6.0851   10.2298  -17.9918 C   0  0  2  0  0  0  0  0  0  0  0  0
   -4.9510    9.2228  -17.7742 C   0  0  0  0  0  0  0  0  0  0  0  0
   -3.6477   10.0244  -17.8484 C   0  0  0  0  0  0  0  0  0  0  0  0
   -4.0450   11.4997  -17.9480 C   0  0  2  0  0  0  0  0  0  0  0  0
   -3.1552   12.4964  -17.1853 C   0  0  0  0  0  0  0  0  0  0  0  0
   -2.3228   13.5355  -18.0121 C   0  0  0  0  0  0  0  0  0  0  0  0
   -1.1654   12.8162  -18.7344 C   0  0  0  0  0  0  0  0  0  0  0  0
   -3.2807   14.0939  -19.0951 C   0  0  0  0  0  0  0  0  0  0  0  0
   -1.7738   14.7023  -17.1318 C   0  0  1  0  0  0  0  0  0  0  0  0
   -1.2867   15.9297  -17.9027 C   0  0  0  0  0  0  0  0  0  0  0  0
   -2.7724   15.1726  -16.2248 O   0  0  0  0  0  0  0  0  0  0  0  0
   -5.4829   11.5145  -17.4129 C   0  0  0  0  0  0  0  0  0  0  0  0
  1  2  1  0
  2  3  1  0
  4  3  1  6
  4  5  1  0
  5  6  2  0
  6  7  1  0
  7  8  2  0
  8  9  1  0
  9 10  2  0
  4 11  1  0
 11 12  1  1
 12 13  1  0
 13 14  1  0
 14 15  1  1
 15 16  1  0
 16 17  1  0
 16 18  1  0
 16 19  1  0
 19 20  1  6
 19 21  1  0
 14 22  1  0
 10  5  1  0
 22 11  1  0
M  END
>  <CHROM.0>  (23) 
63.62446968,167.45755581,-177.57822799,-175.06824685,-60.31490035,88.29122102
-177.47042474,-176.12618047,61.43368834,-178.12800539

>  <CHROM.1>  (23) 
162.13284143,30.51411449,100.86015242,-70.13740074,114.34533349,-71.70132635
-164.20161923,173.17481947,-5.82316030,11.80801851,-17.79802030,-2.64978895
0.11709161,0.29713369

>  <Name>  (23) 
denovo_401

>  <RI>  (23) 
-1.5254e+09

>  <Rbt.Current_Directory>  (23) 
/tmp/claude-0/-home-user-Rare-cancers/1af35c7f-7dc4-53ce-91d2-1631a2a10a85/scratchpad/smwork/cross/dock_8XTT-model8

>  <Rbt.Executable>  (23) 
rbdock - v25.07-alpha

>  <Rbt.Library>  (23) 
libRbt.so (25.07, Buildalpha)

>  <Rbt.Parameter_File>  (23) 
/tmp/claude-0/-home-user-Rare-cancers/1af35c7f-7dc4-53ce-91d2-1631a2a10a85/scratchpad/rdroot/share/rDock/data/scripts/dock.prm

>  <Rbt.Receptor>  (23) 
rec.prm

>  <SCORE>  (23) 
-3.8082

>  <SCORE.INTER>  (23) 
-12.9388

>  <SCORE.INTER.CONST>  (23) 
1

>  <SCORE.INTER.POLAR>  (23) 
-0.925513

>  <SCORE.INTER.REPUL>  (23) 
0

>  <SCORE.INTER.ROT>  (23) 
7

>  <SCORE.INTER.VDW>  (23) 
-22.1921

>  <SCORE.INTER.norm>  (23) 
-0.588128

>  <SCORE.INTRA>  (23) 
7.6015

>  <SCORE.INTRA.DIHEDRAL>  (23) 
9.74545

>  <SCORE.INTRA.DIHEDRAL.0>  (23) 
3.78927

>  <SCORE.INTRA.POLAR>  (23) 
0

>  <SCORE.INTRA.POLAR.0>  (23) 
0

>  <SCORE.INTRA.REPUL>  (23) 
0

>  <SCORE.INTRA.REPUL.0>  (23) 
0

>  <SCORE.INTRA.VDW>  (23) 
2.72877

>  <SCORE.INTRA.VDW.0>  (23) 
1.02728

>  <SCORE.INTRA.norm>  (23) 
0.345523

>  <SCORE.RESTR>  (23) 
0.0287495

>  <SCORE.RESTR.CAVITY>  (23) 
0.0287495

>  <SCORE.RESTR.norm>  (23) 
0.0013068

>  <SCORE.SYSTEM>  (23) 
1.5004

>  <SCORE.SYSTEM.CONST>  (23) 
0

>  <SCORE.SYSTEM.DIHEDRAL>  (23) 
2.67745

>  <SCORE.SYSTEM.POLAR>  (23) 
-0.0415961

>  <SCORE.SYSTEM.REPUL>  (23) 
0.363253

>  <SCORE.SYSTEM.VDW>  (23) 
-1.51317

>  <SCORE.SYSTEM.norm>  (23) 
0.0681999

>  <SCORE.heavy>  (23) 
22

>  <SCORE.norm>  (23) 
-0.173099

$$$$
denovo_401
     RDKit          3D

 22 23  0  0  0  0  0  0  0  0999 V2000
    0.1175   10.1211  -19.5266 C   0  0  0  0  0  0  0  0  0  0  0  0
   -1.0150   10.8113  -19.0154 O   0  0  0  0  0  0  0  0  0  0  0  0
   -1.6490   11.6038  -20.0220 C   0  0  0  0  0  0  0  0  0  0  0  0
   -2.9051   12.2938  -19.4465 C   0  0  2  0  0  0  0  0  0  0  0  0
   -2.4875   13.3171  -18.3960 C   0  0  0  0  0  0  0  0  0  0  0  0
   -2.4726   14.6817  -18.7220 C   0  0  0  0  0  0  0  0  0  0  0  0
   -2.0912   15.6352  -17.7765 C   0  0  0  0  0  0  0  0  0  0  0  0
   -1.7189   15.2376  -16.4946 C   0  0  0  0  0  0  0  0  0  0  0  0
   -1.7275   13.8863  -16.1567 C   0  0  0  0  0  0  0  0  0  0  0  0
   -2.1083   12.9309  -17.1007 C   0  0  0  0  0  0  0  0  0  0  0  0
   -3.9400   11.2853  -18.8857 C   0  0  2  0  0  0  0  0  0  0  0  0
   -3.9824    9.9393  -19.6165 C   0  0  0  0  0  0  0  0  0  0  0  0
   -5.3980    9.3891  -19.4168 C   0  0  0  0  0  0  0  0  0  0  0  0
   -6.2005   10.4872  -18.7138 C   0  0  2  0  0  0  0  0  0  0  0  0
   -7.6669   10.6440  -19.1519 C   0  0  0  0  0  0  0  0  0  0  0  0
   -8.5377   11.7467  -18.4577 C   0  0  0  0  0  0  0  0  0  0  0  0
   -7.9981   13.1433  -18.8277 C   0  0  0  0  0  0  0  0  0  0  0  0
   -9.9607   11.6161  -19.0581 C   0  0  0  0  0  0  0  0  0  0  0  0
   -8.5952   11.5786  -16.9065 C   0  0  1  0  0  0  0  0  0  0  0  0
   -9.4481   12.6107  -16.1680 C   0  0  0  0  0  0  0  0  0  0  0  0
   -9.1211   10.2991  -16.5495 O   0  0  0  0  0  0  0  0  0  0  0  0
   -5.3925   11.7579  -19.0083 C   0  0  0  0  0  0  0  0  0  0  0  0
  1  2  1  0
  2  3  1  0
  4  3  1  1
  4  5  1  0
  5  6  2  0
  6  7  1  0
  7  8  2  0
  8  9  1  0
  9 10  2  0
  4 11  1  0
 11 12  1  6
 12 13  1  0
 13 14  1  0
 14 15  1  6
 15 16  1  0
 16 17  1  0
 16 18  1  0
 16 19  1  0
 19 20  1  1
 19 21  1  0
 14 22  1  0
 10  5  1  0
 22 11  1  0
M  END
>  <CHROM.0>  (24) 
-57.81833189,155.09636099,-176.94973394,-63.35430511,-176.55612280,87.40192416
-54.94033129,-62.52364011,-74.59817741,69.77398050

>  <CHROM.1>  (24) 
177.76561045,66.67734369,102.26734146,-32.15274230,179.58602373,66.32379791
-179.07395943,-60.67525270,-4.81603816,11.98034044,-18.34081058,-0.11419600
-0.15117550,-2.62754086

>  <Name>  (24) 
denovo_401

>  <RI>  (24) 
-1.5254e+09

>  <Rbt.Current_Directory>  (24) 
/tmp/claude-0/-home-user-Rare-cancers/1af35c7f-7dc4-53ce-91d2-1631a2a10a85/scratchpad/smwork/cross/dock_8XTT-model8

>  <Rbt.Executable>  (24) 
rbdock - v25.07-alpha

>  <Rbt.Library>  (24) 
libRbt.so (25.07, Buildalpha)

>  <Rbt.Parameter_File>  (24) 
/tmp/claude-0/-home-user-Rare-cancers/1af35c7f-7dc4-53ce-91d2-1631a2a10a85/scratchpad/rdroot/share/rDock/data/scripts/dock.prm

>  <Rbt.Receptor>  (24) 
rec.prm

>  <SCORE>  (24) 
-3.6344

>  <SCORE.INTER>  (24) 
-4.86797

>  <SCORE.INTER.CONST>  (24) 
1

>  <SCORE.INTER.POLAR>  (24) 
-0.798999

>  <SCORE.INTER.REPUL>  (24) 
0.0021878

>  <SCORE.INTER.ROT>  (24) 
7

>  <SCORE.INTER.VDW>  (24) 
-14.5623

>  <SCORE.INTER.norm>  (24) 
-0.221271

>  <SCORE.INTRA>  (24) 
3.67646

>  <SCORE.INTRA.DIHEDRAL>  (24) 
0.146979

>  <SCORE.INTRA.DIHEDRAL.0>  (24) 
3.78927

>  <SCORE.INTRA.POLAR>  (24) 
0

>  <SCORE.INTRA.POLAR.0>  (24) 
0

>  <SCORE.INTRA.REPUL>  (24) 
0

>  <SCORE.INTRA.REPUL.0>  (24) 
0

>  <SCORE.INTRA.VDW>  (24) 
3.60297

>  <SCORE.INTRA.VDW.0>  (24) 
1.02728

>  <SCORE.INTRA.norm>  (24) 
0.167112

>  <SCORE.RESTR>  (24) 
0.160647

>  <SCORE.RESTR.CAVITY>  (24) 
0.160647

>  <SCORE.RESTR.norm>  (24) 
0.00730212

>  <SCORE.SYSTEM>  (24) 
-2.60351

>  <SCORE.SYSTEM.CONST>  (24) 
0

>  <SCORE.SYSTEM.DIHEDRAL>  (24) 
5.96841

>  <SCORE.SYSTEM.POLAR>  (24) 
-1.12982

>  <SCORE.SYSTEM.REPUL>  (24) 
0.000977634

>  <SCORE.SYSTEM.VDW>  (24) 
-1.7512

>  <SCORE.SYSTEM.norm>  (24) 
-0.118341

>  <SCORE.heavy>  (24) 
22

>  <SCORE.norm>  (24) 
-0.165199

$$$$
denovo_401
     RDKit          3D

 22 23  0  0  0  0  0  0  0  0999 V2000
   -8.5465    7.8075  -20.0191 C   0  0  0  0  0  0  0  0  0  0  0  0
   -7.8994    8.3889  -18.8950 O   0  0  0  0  0  0  0  0  0  0  0  0
   -8.6604    9.4678  -18.3473 C   0  0  0  0  0  0  0  0  0  0  0  0
   -7.8230   10.2356  -17.3013 C   0  0  2  0  0  0  0  0  0  0  0  0
   -8.5816   11.4814  -16.8568 C   0  0  0  0  0  0  0  0  0  0  0  0
   -9.3036   11.4634  -15.6538 C   0  0  0  0  0  0  0  0  0  0  0  0
  -10.0073   12.5917  -15.2292 C   0  0  0  0  0  0  0  0  0  0  0  0
   -9.9995   13.7511  -16.0011 C   0  0  0  0  0  0  0  0  0  0  0  0
   -9.2884   13.7835  -17.1983 C   0  0  0  0  0  0  0  0  0  0  0  0
   -8.5841   12.6562  -17.6252 C   0  0  0  0  0  0  0  0  0  0  0  0
   -6.3996   10.5811  -17.8086 C   0  0  2  0  0  0  0  0  0  0  0  0
   -5.3934    9.4286  -17.7247 C   0  0  0  0  0  0  0  0  0  0  0  0
   -4.0105   10.0765  -17.6056 C   0  0  0  0  0  0  0  0  0  0  0  0
   -4.2426   11.5831  -17.4622 C   0  0  2  0  0  0  0  0  0  0  0  0
   -3.2989   12.3281  -16.5024 C   0  0  0  0  0  0  0  0  0  0  0  0
   -2.2658   13.3385  -17.1088 C   0  0  0  0  0  0  0  0  0  0  0  0
   -1.0444   12.5688  -17.6516 C   0  0  0  0  0  0  0  0  0  0  0  0
   -2.9734   14.0108  -18.3128 C   0  0  0  0  0  0  0  0  0  0  0  0
   -1.8129   14.4238  -16.0816 C   0  0  1  0  0  0  0  0  0  0  0  0
   -1.0798   15.6248  -16.6798 C   0  0  0  0  0  0  0  0  0  0  0  0
   -2.9328   14.9547  -15.3710 O   0  0  0  0  0  0  0  0  0  0  0  0
   -5.7000   11.6719  -16.9908 C   0  0  0  0  0  0  0  0  0  0  0  0
  1  2  1  0
  2  3  1  0
  4  3  1  6
  4  5  1  0
  5  6  2  0
  6  7  1  0
  7  8  2  0
  8  9  1  0
  9 10  2  0
  4 11  1  0
 11 12  1  1
 12 13  1  0
 13 14  1  0
 14 15  1  1
 15 16  1  0
 16 17  1  0
 16 18  1  0
 16 19  1  0
 19 20  1  6
 19 21  1  0
 14 22  1  0
 10  5  1  0
 22 11  1  0
M  END
>  <CHROM.0>  (25) 
-178.34939374,157.26960770,178.57385746,-67.05973398,-60.14651953,88.48268382
-32.49491114,70.49425992,-73.83397856,67.56245881

>  <CHROM.1>  (25) 
-169.79165918,172.96567213,99.12825788,-80.21731171,111.41873108,-80.59415125
-165.94366280,174.27455303,-5.81080274,11.91647828,-17.22240672,-2.66505190
0.12477292,0.48001047

>  <Name>  (25) 
denovo_401

>  <RI>  (25) 
-1.5254e+09

>  <Rbt.Current_Directory>  (25) 
/tmp/claude-0/-home-user-Rare-cancers/1af35c7f-7dc4-53ce-91d2-1631a2a10a85/scratchpad/smwork/cross/dock_8XTT-model8

>  <Rbt.Executable>  (25) 
rbdock - v25.07-alpha

>  <Rbt.Library>  (25) 
libRbt.so (25.07, Buildalpha)

>  <Rbt.Parameter_File>  (25) 
/tmp/claude-0/-home-user-Rare-cancers/1af35c7f-7dc4-53ce-91d2-1631a2a10a85/scratchpad/rdroot/share/rDock/data/scripts/dock.prm

>  <Rbt.Receptor>  (25) 
rec.prm

>  <SCORE>  (25) 
-2.5356

>  <SCORE.INTER>  (25) 
-9.4807

>  <SCORE.INTER.CONST>  (25) 
1

>  <SCORE.INTER.POLAR>  (25) 
0

>  <SCORE.INTER.REPUL>  (25) 
0

>  <SCORE.INTER.ROT>  (25) 
7

>  <SCORE.INTER.VDW>  (25) 
-21.8807

>  <SCORE.INTER.norm>  (25) 
-0.430941

>  <SCORE.INTRA>  (25) 
7.61008

>  <SCORE.INTRA.DIHEDRAL>  (25) 
8.41295

>  <SCORE.INTRA.DIHEDRAL.0>  (25) 
3.78927

>  <SCORE.INTRA.POLAR>  (25) 
0

>  <SCORE.INTRA.POLAR.0>  (25) 
0

>  <SCORE.INTRA.REPUL>  (25) 
0

>  <SCORE.INTRA.REPUL.0>  (25) 
0

>  <SCORE.INTRA.VDW>  (25) 
3.40361

>  <SCORE.INTRA.VDW.0>  (25) 
1.02728

>  <SCORE.INTRA.norm>  (25) 
0.345913

>  <SCORE.RESTR>  (25) 
0.489221

>  <SCORE.RESTR.CAVITY>  (25) 
0.489221

>  <SCORE.RESTR.norm>  (25) 
0.0222373

>  <SCORE.SYSTEM>  (25) 
-1.15424

>  <SCORE.SYSTEM.CONST>  (25) 
0

>  <SCORE.SYSTEM.DIHEDRAL>  (25) 
8.99531

>  <SCORE.SYSTEM.POLAR>  (25) 
-1.46571

>  <SCORE.SYSTEM.REPUL>  (25) 
0.0492919

>  <SCORE.SYSTEM.VDW>  (25) 
-0.91493

>  <SCORE.SYSTEM.norm>  (25) 
-0.0524655

>  <SCORE.heavy>  (25) 
22

>  <SCORE.norm>  (25) 
-0.115256

$$$$
denovo_401
     RDKit          3D

 22 23  0  0  0  0  0  0  0  0999 V2000
   -0.4447   10.4774  -20.5562 C   0  0  0  0  0  0  0  0  0  0  0  0
   -0.2334   10.8143  -19.1915 O   0  0  0  0  0  0  0  0  0  0  0  0
   -1.3526   10.4530  -18.3791 C   0  0  0  0  0  0  0  0  0  0  0  0
   -2.5238   11.4310  -18.6174 C   0  0  2  0  0  0  0  0  0  0  0  0
   -2.2072   12.7727  -17.9658 C   0  0  0  0  0  0  0  0  0  0  0  0
   -2.1124   12.8620  -16.5688 C   0  0  0  0  0  0  0  0  0  0  0  0
   -1.8260   14.0808  -15.9513 C   0  0  0  0  0  0  0  0  0  0  0  0
   -1.6321   15.2252  -16.7212 C   0  0  0  0  0  0  0  0  0  0  0  0
   -1.7244   15.1523  -18.1092 C   0  0  0  0  0  0  0  0  0  0  0  0
   -2.0109   13.9346  -18.7289 C   0  0  0  0  0  0  0  0  0  0  0  0
   -3.8847   10.8662  -18.1358 C   0  0  2  0  0  0  0  0  0  0  0  0
   -4.4128    9.6843  -18.9554 C   0  0  0  0  0  0  0  0  0  0  0  0
   -5.9372    9.7089  -18.8074 C   0  0  0  0  0  0  0  0  0  0  0  0
   -6.2831   10.9882  -18.0408 C   0  0  2  0  0  0  0  0  0  0  0  0
   -7.5618   11.7208  -18.4824 C   0  0  0  0  0  0  0  0  0  0  0  0
   -8.9338   11.2459  -17.8922 C   0  0  0  0  0  0  0  0  0  0  0  0
   -8.9066   11.3660  -16.3547 C   0  0  0  0  0  0  0  0  0  0  0  0
  -10.0002   12.2369  -18.4243 C   0  0  0  0  0  0  0  0  0  0  0  0
   -9.2990    9.7889  -18.3182 C   0  0  1  0  0  0  0  0  0  0  0  0
   -9.3075    9.5309  -19.8252 C   0  0  0  0  0  0  0  0  0  0  0  0
   -8.3823    8.8470  -17.7584 O   0  0  0  0  0  0  0  0  0  0  0  0
   -5.0409   11.8662  -18.2414 C   0  0  0  0  0  0  0  0  0  0  0  0
  1  2  1  0
  2  3  1  0
  4  3  1  1
  4  5  1  0
  5  6  2  0
  6  7  1  0
  7  8  2  0
  8  9  1  0
  9 10  2  0
  4 11  1  0
 11 12  1  6
 12 13  1  0
 13 14  1  0
 14 15  1  6
 15 16  1  0
 16 17  1  0
 16 18  1  0
 16 19  1  0
 19 20  1  6
 19 21  1  0
 14 22  1  0
 10  5  1  0
 22 11  1  0
M  END
>  <CHROM.0>  (26) 
-177.96280317,68.18576819,66.76110467,67.44863642,-172.69438031,85.52475413
43.27653430,67.20608498,58.93982572,64.64791802

>  <CHROM.1>  (26) 
-74.11641336,-73.06125564,-66.23277848,-68.56531687,84.41175077,59.25496168
-54.89242524,66.66671911,-4.79349203,11.51367028,-18.20831920,-0.25677675
-0.13286527,-2.65483721

>  <Name>  (26) 
denovo_401

>  <RI>  (26) 
-1.5254e+09

>  <Rbt.Current_Directory>  (26) 
/tmp/claude-0/-home-user-Rare-cancers/1af35c7f-7dc4-53ce-91d2-1631a2a10a85/scratchpad/smwork/cross/dock_8XTT-model8

>  <Rbt.Executable>  (26) 
rbdock - v25.07-alpha

>  <Rbt.Library>  (26) 
libRbt.so (25.07, Buildalpha)

>  <Rbt.Parameter_File>  (26) 
/tmp/claude-0/-home-user-Rare-cancers/1af35c7f-7dc4-53ce-91d2-1631a2a10a85/scratchpad/rdroot/share/rDock/data/scripts/dock.prm

>  <Rbt.Receptor>  (26) 
rec.prm

>  <SCORE>  (26) 
-2.0867

>  <SCORE.INTER>  (26) 
-5.46839

>  <SCORE.INTER.CONST>  (26) 
1

>  <SCORE.INTER.POLAR>  (26) 
0

>  <SCORE.INTER.REPUL>  (26) 
0.0766485

>  <SCORE.INTER.ROT>  (26) 
7

>  <SCORE.INTER.VDW>  (26) 
-18.2516

>  <SCORE.INTER.norm>  (26) 
-0.248563

>  <SCORE.INTRA>  (26) 
1.21716

>  <SCORE.INTRA.DIHEDRAL>  (26) 
1.55762

>  <SCORE.INTRA.DIHEDRAL.0>  (26) 
3.78927

>  <SCORE.INTRA.POLAR>  (26) 
0

>  <SCORE.INTRA.POLAR.0>  (26) 
0

>  <SCORE.INTRA.REPUL>  (26) 
0

>  <SCORE.INTRA.REPUL.0>  (26) 
0

>  <SCORE.INTRA.VDW>  (26) 
0.438353

>  <SCORE.INTRA.VDW.0>  (26) 
1.02728

>  <SCORE.INTRA.norm>  (26) 
0.0553257

>  <SCORE.RESTR>  (26) 
0.0961258

>  <SCORE.RESTR.CAVITY>  (26) 
0.0961258

>  <SCORE.RESTR.norm>  (26) 
0.00436935

>  <SCORE.SYSTEM>  (26) 
2.06841

>  <SCORE.SYSTEM.CONST>  (26) 
0

>  <SCORE.SYSTEM.DIHEDRAL>  (26) 
4.10952

>  <SCORE.SYSTEM.POLAR>  (26) 
-0.739001

>  <SCORE.SYSTEM.REPUL>  (26) 
0.109295

>  <SCORE.SYSTEM.VDW>  (26) 
1.97978

>  <SCORE.SYSTEM.norm>  (26) 
0.0940188

>  <SCORE.heavy>  (26) 
22

>  <SCORE.norm>  (26) 
-0.0948492

$$$$
denovo_401
     RDKit          3D

 22 23  0  0  0  0  0  0  0  0999 V2000
   -0.4947   10.5042  -20.5419 C   0  0  0  0  0  0  0  0  0  0  0  0
   -0.2941   10.8348  -19.1741 O   0  0  0  0  0  0  0  0  0  0  0  0
   -1.4158   10.4610  -18.3706 C   0  0  0  0  0  0  0  0  0  0  0  0
   -2.5939   11.4294  -18.6141 C   0  0  2  0  0  0  0  0  0  0  0  0
   -2.2090   12.8278  -18.1436 C   0  0  0  0  0  0  0  0  0  0  0  0
   -1.9941   13.8440  -19.0869 C   0  0  0  0  0  0  0  0  0  0  0  0
   -1.6384   15.1306  -18.6784 C   0  0  0  0  0  0  0  0  0  0  0  0
   -1.4920   15.4177  -17.3234 C   0  0  0  0  0  0  0  0  0  0  0  0
   -1.7007   14.4187  -16.3754 C   0  0  0  0  0  0  0  0  0  0  0  0
   -2.0562   13.1312  -16.7815 C   0  0  0  0  0  0  0  0  0  0  0  0
   -3.9129   10.9463  -17.9588 C   0  0  2  0  0  0  0  0  0  0  0  0
   -4.5148    9.6851  -18.5870 C   0  0  0  0  0  0  0  0  0  0  0  0
   -6.0214    9.7508  -18.3177 C   0  0  0  0  0  0  0  0  0  0  0  0
   -6.2943   11.1164  -17.6814 C   0  0  2  0  0  0  0  0  0  0  0  0
   -7.6011   11.8123  -18.0994 C   0  0  0  0  0  0  0  0  0  0  0  0
   -8.9196   11.4396  -17.3387 C   0  0  0  0  0  0  0  0  0  0  0  0
  -10.1233   12.1190  -18.0231 C   0  0  0  0  0  0  0  0  0  0  0  0
   -9.0910    9.9071  -17.4949 C   0  0  0  0  0  0  0  0  0  0  0  0
   -8.8680   11.8196  -15.8252 C   0  0  1  0  0  0  0  0  0  0  0  0
   -8.7606   13.3160  -15.5300 C   0  0  0  0  0  0  0  0  0  0  0  0
  -10.0367   11.3622  -15.1426 O   0  0  0  0  0  0  0  0  0  0  0  0
   -5.0680   11.9452  -18.0859 C   0  0  0  0  0  0  0  0  0  0  0  0
  1  2  1  0
  2  3  1  0
  4  3  1  1
  4  5  1  0
  5  6  2  0
  6  7  1  0
  7  8  2  0
  8  9  1  0
  9 10  2  0
  4 11  1  0
 11 12  1  6
 12 13  1  0
 13 14  1  0
 14 15  1  6
 15 16  1  0
 16 17  1  0
 16 18  1  0
 16 19  1  0
 19 20  1  6
 19 21  1  0
 14 22  1  0
 10  5  1  0
 22 11  1  0
M  END
>  <CHROM.0>  (27) 
178.88160791,65.64436042,-62.62301531,-66.21095115,-61.09402651,86.68148599
44.57030302,-67.91679782,-76.94611157,-52.85780678

>  <CHROM.1>  (27) 
-73.92976535,-64.55648968,109.83975157,-68.02953151,84.88176697,-173.26955523
64.23399977,-55.13938083,-4.86407863,11.91186104,-17.77310027,-0.01389095
-0.26275224,-2.70066683

>  <Name>  (27) 
denovo_401

>  <RI>  (27) 
-1.5254e+09

>  <Rbt.Current_Directory>  (27) 
/tmp/claude-0/-home-user-Rare-cancers/1af35c7f-7dc4-53ce-91d2-1631a2a10a85/scratchpad/smwork/cross/dock_8XTT-model8

>  <Rbt.Executable>  (27) 
rbdock - v25.07-alpha

>  <Rbt.Library>  (27) 
libRbt.so (25.07, Buildalpha)

>  <Rbt.Parameter_File>  (27) 
/tmp/claude-0/-home-user-Rare-cancers/1af35c7f-7dc4-53ce-91d2-1631a2a10a85/scratchpad/rdroot/share/rDock/data/scripts/dock.prm

>  <Rbt.Receptor>  (27) 
rec.prm

>  <SCORE>  (27) 
-1.8320

>  <SCORE.INTER>  (27) 
-7.71126

>  <SCORE.INTER.CONST>  (27) 
1

>  <SCORE.INTER.POLAR>  (27) 
-0.458371

>  <SCORE.INTER.REPUL>  (27) 
0.0700554

>  <SCORE.INTER.ROT>  (27) 
7

>  <SCORE.INTER.VDW>  (27) 
-18.9031

>  <SCORE.INTER.norm>  (27) 
-0.350512

>  <SCORE.INTRA>  (27) 
2.3015

>  <SCORE.INTRA.DIHEDRAL>  (27) 
1.00753

>  <SCORE.INTRA.DIHEDRAL.0>  (27) 
3.78927

>  <SCORE.INTRA.POLAR>  (27) 
0

>  <SCORE.INTRA.POLAR.0>  (27) 
0

>  <SCORE.INTRA.REPUL>  (27) 
0

>  <SCORE.INTRA.REPUL.0>  (27) 
0

>  <SCORE.INTRA.VDW>  (27) 
1.79773

>  <SCORE.INTRA.VDW.0>  (27) 
1.02728

>  <SCORE.INTRA.norm>  (27) 
0.104614

>  <SCORE.RESTR>  (27) 
0

>  <SCORE.RESTR.CAVITY>  (27) 
0

>  <SCORE.RESTR.norm>  (27) 
0

>  <SCORE.SYSTEM>  (27) 
3.57775

>  <SCORE.SYSTEM.CONST>  (27) 
0

>  <SCORE.SYSTEM.DIHEDRAL>  (27) 
4.85001

>  <SCORE.SYSTEM.POLAR>  (27) 
-0.642327

>  <SCORE.SYSTEM.REPUL>  (27) 
0.213082

>  <SCORE.SYSTEM.VDW>  (27) 
2.27125

>  <SCORE.SYSTEM.norm>  (27) 
0.162625

>  <SCORE.heavy>  (27) 
22

>  <SCORE.norm>  (27) 
-0.0832732

$$$$
denovo_401
     RDKit          3D

 22 23  0  0  0  0  0  0  0  0999 V2000
   -0.5253   10.4202  -20.1878 C   0  0  0  0  0  0  0  0  0  0  0  0
   -0.9567   10.1203  -18.8670 O   0  0  0  0  0  0  0  0  0  0  0  0
   -1.0226   11.2940  -18.0538 C   0  0  0  0  0  0  0  0  0  0  0  0
   -2.2366   12.1580  -18.4598 C   0  0  2  0  0  0  0  0  0  0  0  0
   -2.0490   13.5776  -17.9360 C   0  0  0  0  0  0  0  0  0  0  0  0
   -2.0192   13.8099  -16.5525 C   0  0  0  0  0  0  0  0  0  0  0  0
   -1.8512   15.1019  -16.0513 C   0  0  0  0  0  0  0  0  0  0  0  0
   -1.7121   16.1775  -16.9252 C   0  0  0  0  0  0  0  0  0  0  0  0
   -1.7410   15.9625  -18.3011 C   0  0  0  0  0  0  0  0  0  0  0  0
   -1.9092   14.6714  -18.8048 C   0  0  0  0  0  0  0  0  0  0  0  0
   -3.5863   11.5503  -17.9997 C   0  0  2  0  0  0  0  0  0  0  0  0
   -3.7906   10.0813  -18.3845 C   0  0  0  0  0  0  0  0  0  0  0  0
   -5.3051    9.8696  -18.4734 C   0  0  0  0  0  0  0  0  0  0  0  0
   -5.9518   11.2461  -18.2972 C   0  0  2  0  0  0  0  0  0  0  0  0
   -7.1965   11.5276  -19.1564 C   0  0  0  0  0  0  0  0  0  0  0  0
   -8.6072   11.4147  -18.4832 C   0  0  0  0  0  0  0  0  0  0  0  0
   -8.7094   12.4228  -17.3204 C   0  0  0  0  0  0  0  0  0  0  0  0
   -9.6370   11.8337  -19.5631 C   0  0  0  0  0  0  0  0  0  0  0  0
   -8.9190    9.9699  -17.9802 C   0  0  1  0  0  0  0  0  0  0  0  0
   -8.8708    8.8798  -19.0513 C   0  0  0  0  0  0  0  0  0  0  0  0
   -7.9963    9.5712  -16.9649 O   0  0  0  0  0  0  0  0  0  0  0  0
   -4.8120   12.2167  -18.6335 C   0  0  0  0  0  0  0  0  0  0  0  0
  1  2  1  0
  2  3  1  0
  4  3  1  1
  4  5  1  0
  5  6  2  0
  6  7  1  0
  7  8  2  0
  8  9  1  0
  9 10  2  0
  4 11  1  0
 11 12  1  6
 12 13  1  0
 13 14  1  0
 14 15  1  6
 15 16  1  0
 16 17  1  0
 16 18  1  0
 16 19  1  0
 19 20  1  6
 19 21  1  0
 14 22  1  0
 10  5  1  0
 22 11  1  0
M  END
>  <CHROM.0>  (28) 
-179.86377158,65.53079348,71.76469157,64.30817997,33.53351747,24.81596696
-29.50323381,-179.57697991,-176.79847737,65.87387311

>  <CHROM.1>  (28) 
73.23251253,-161.51133248,-64.79371566,-51.01354779,101.31560881,60.52268038
-57.96028879,65.54603802,-4.58669240,11.89710426,-18.21736325,-0.39885907
-0.06462179,-2.85204832

>  <Name>  (28) 
denovo_401

>  <RI>  (28) 
-1.5254e+09

>  <Rbt.Current_Directory>  (28) 
/tmp/claude-0/-home-user-Rare-cancers/1af35c7f-7dc4-53ce-91d2-1631a2a10a85/scratchpad/smwork/cross/dock_8XTT-model8

>  <Rbt.Executable>  (28) 
rbdock - v25.07-alpha

>  <Rbt.Library>  (28) 
libRbt.so (25.07, Buildalpha)

>  <Rbt.Parameter_File>  (28) 
/tmp/claude-0/-home-user-Rare-cancers/1af35c7f-7dc4-53ce-91d2-1631a2a10a85/scratchpad/rdroot/share/rDock/data/scripts/dock.prm

>  <Rbt.Receptor>  (28) 
rec.prm

>  <SCORE>  (28) 
-1.5625

>  <SCORE.INTER>  (28) 
-7.29225

>  <SCORE.INTER.CONST>  (28) 
1

>  <SCORE.INTER.POLAR>  (28) 
0

>  <SCORE.INTER.REPUL>  (28) 
0

>  <SCORE.INTER.ROT>  (28) 
7

>  <SCORE.INTER.VDW>  (28) 
-19.6922

>  <SCORE.INTER.norm>  (28) 
-0.331466

>  <SCORE.INTRA>  (28) 
2.8785

>  <SCORE.INTRA.DIHEDRAL>  (28) 
4.70312

>  <SCORE.INTRA.DIHEDRAL.0>  (28) 
3.78927

>  <SCORE.INTRA.POLAR>  (28) 
0

>  <SCORE.INTRA.POLAR.0>  (28) 
0

>  <SCORE.INTRA.REPUL>  (28) 
0

>  <SCORE.INTRA.REPUL.0>  (28) 
0

>  <SCORE.INTRA.VDW>  (28) 
0.526943

>  <SCORE.INTRA.VDW.0>  (28) 
1.02728

>  <SCORE.INTRA.norm>  (28) 
0.130841

>  <SCORE.RESTR>  (28) 
0

>  <SCORE.RESTR.CAVITY>  (28) 
0

>  <SCORE.RESTR.norm>  (28) 
0

>  <SCORE.SYSTEM>  (28) 
2.85128

>  <SCORE.SYSTEM.CONST>  (28) 
0

>  <SCORE.SYSTEM.DIHEDRAL>  (28) 
10.0776

>  <SCORE.SYSTEM.POLAR>  (28) 
-1.2109

>  <SCORE.SYSTEM.REPUL>  (28) 
0.0908011

>  <SCORE.SYSTEM.VDW>  (28) 
1.47555

>  <SCORE.SYSTEM.norm>  (28) 
0.129604

>  <SCORE.heavy>  (28) 
22

>  <SCORE.norm>  (28) 
-0.0710211

$$$$
denovo_401
     RDKit          3D

 22 23  0  0  0  0  0  0  0  0999 V2000
   -5.5174    7.2315  -19.6005 C   0  0  0  0  0  0  0  0  0  0  0  0
   -5.0412    8.3424  -18.8526 O   0  0  0  0  0  0  0  0  0  0  0  0
   -6.0279    9.3715  -18.7495 C   0  0  0  0  0  0  0  0  0  0  0  0
   -5.4834   10.5525  -17.9165 C   0  0  2  0  0  0  0  0  0  0  0  0
   -6.6391   11.4528  -17.4938 C   0  0  0  0  0  0  0  0  0  0  0  0
   -6.8898   11.6682  -16.1301 C   0  0  0  0  0  0  0  0  0  0  0  0
   -7.9440   12.4866  -15.7209 C   0  0  0  0  0  0  0  0  0  0  0  0
   -8.7613   13.0987  -16.6681 C   0  0  0  0  0  0  0  0  0  0  0  0
   -8.5255   12.8932  -18.0255 C   0  0  0  0  0  0  0  0  0  0  0  0
   -7.4720   12.0750  -18.4372 C   0  0  0  0  0  0  0  0  0  0  0  0
   -4.3768   11.3479  -18.6551 C   0  0  2  0  0  0  0  0  0  0  0  0
   -3.0825   10.5656  -18.9007 C   0  0  0  0  0  0  0  0  0  0  0  0
   -1.9633   11.6079  -18.9879 C   0  0  0  0  0  0  0  0  0  0  0  0
   -2.5928   12.9584  -18.6356 C   0  0  2  0  0  0  0  0  0  0  0  0
   -1.7228   13.9184  -17.8060 C   0  0  0  0  0  0  0  0  0  0  0  0
   -1.8148   15.4540  -18.1055 C   0  0  0  0  0  0  0  0  0  0  0  0
   -3.2146   15.9747  -17.7204 C   0  0  0  0  0  0  0  0  0  0  0  0
   -0.7833   16.1393  -17.1735 C   0  0  0  0  0  0  0  0  0  0  0  0
   -1.4978   15.7956  -19.5956 C   0  0  1  0  0  0  0  0  0  0  0  0
   -0.3189   15.0355  -20.2042 C   0  0  0  0  0  0  0  0  0  0  0  0
   -2.6222   15.5229  -20.4336 O   0  0  0  0  0  0  0  0  0  0  0  0
   -3.8676   12.5659  -17.8772 C   0  0  0  0  0  0  0  0  0  0  0  0
  1  2  1  0
  2  3  1  0
  4  3  1  6
  4  5  1  0
  5  6  2  0
  6  7  1  0
  7  8  2  0
  8  9  1  0
  9 10  2  0
  4 11  1  0
 11 12  1  1
 12 13  1  0
 13 14  1  0
 14 15  1  1
 15 16  1  0
 16 17  1  0
 16 18  1  0
 16 19  1  0
 19 20  1  6
 19 21  1  0
 14 22  1  0
 10  5  1  0
 22 11  1  0
M  END
>  <CHROM.0>  (29) 
61.99003121,65.30350451,178.92505069,170.27475641,-176.52292374,-29.92358051
-177.71711161,71.06648386,-73.69217345,179.98082559

>  <CHROM.1>  (29) 
179.26937458,-164.63244782,120.30664832,-66.01107536,143.49199382,66.69758538
-41.90888621,-60.87847231,-4.28831186,12.54891178,-18.31019487,-2.46369231
0.37916709,0.25214229

>  <Name>  (29) 
denovo_401

>  <RI>  (29) 
-1.5254e+09

>  <Rbt.Current_Directory>  (29) 
/tmp/claude-0/-home-user-Rare-cancers/1af35c7f-7dc4-53ce-91d2-1631a2a10a85/scratchpad/smwork/cross/dock_8XTT-model8

>  <Rbt.Executable>  (29) 
rbdock - v25.07-alpha

>  <Rbt.Library>  (29) 
libRbt.so (25.07, Buildalpha)

>  <Rbt.Parameter_File>  (29) 
/tmp/claude-0/-home-user-Rare-cancers/1af35c7f-7dc4-53ce-91d2-1631a2a10a85/scratchpad/rdroot/share/rDock/data/scripts/dock.prm

>  <Rbt.Receptor>  (29) 
rec.prm

>  <SCORE>  (29) 
-1.1512

>  <SCORE.INTER>  (29) 
0.238434

>  <SCORE.INTER.CONST>  (29) 
1

>  <SCORE.INTER.POLAR>  (29) 
-0.663168

>  <SCORE.INTER.REPUL>  (29) 
0

>  <SCORE.INTER.ROT>  (29) 
7

>  <SCORE.INTER.VDW>  (29) 
-9.9068

>  <SCORE.INTER.norm>  (29) 
0.0108379

>  <SCORE.INTRA>  (29) 
2.08826

>  <SCORE.INTRA.DIHEDRAL>  (29) 
3.63015

>  <SCORE.INTRA.DIHEDRAL.0>  (29) 
3.78927

>  <SCORE.INTRA.POLAR>  (29) 
0

>  <SCORE.INTRA.POLAR.0>  (29) 
0

>  <SCORE.INTRA.REPUL>  (29) 
0

>  <SCORE.INTRA.REPUL.0>  (29) 
0

>  <SCORE.INTRA.VDW>  (29) 
0.273188

>  <SCORE.INTRA.VDW.0>  (29) 
1.02728

>  <SCORE.INTRA.norm>  (29) 
0.094921

>  <SCORE.RESTR>  (29) 
0

>  <SCORE.RESTR.CAVITY>  (29) 
0

>  <SCORE.RESTR.norm>  (29) 
0

>  <SCORE.SYSTEM>  (29) 
-3.4779

>  <SCORE.SYSTEM.CONST>  (29) 
0

>  <SCORE.SYSTEM.DIHEDRAL>  (29) 
3.95478

>  <SCORE.SYSTEM.POLAR>  (29) 
-0.496167

>  <SCORE.SYSTEM.REPUL>  (29) 
0.190462

>  <SCORE.SYSTEM.VDW>  (29) 
-4.72063

>  <SCORE.SYSTEM.norm>  (29) 
-0.158086

>  <SCORE.heavy>  (29) 
22

>  <SCORE.norm>  (29) 
-0.0523275

$$$$
denovo_401
     RDKit          3D

 22 23  0  0  0  0  0  0  0  0999 V2000
    0.0244   10.1101  -19.8907 C   0  0  0  0  0  0  0  0  0  0  0  0
   -1.1144   10.9326  -19.6736 O   0  0  0  0  0  0  0  0  0  0  0  0
   -2.0562   10.3096  -18.7972 C   0  0  0  0  0  0  0  0  0  0  0  0
   -3.2896   11.2188  -18.6047 C   0  0  2  0  0  0  0  0  0  0  0  0
   -2.8621   12.5226  -17.9395 C   0  0  0  0  0  0  0  0  0  0  0  0
   -2.9404   13.7267  -18.6556 C   0  0  0  0  0  0  0  0  0  0  0  0
   -2.5517   14.9313  -18.0670 C   0  0  0  0  0  0  0  0  0  0  0  0
   -2.0792   14.9481  -16.7569 C   0  0  0  0  0  0  0  0  0  0  0  0
   -1.9946   13.7604  -16.0340 C   0  0  0  0  0  0  0  0  0  0  0  0
   -2.3824   12.5544  -16.6206 C   0  0  0  0  0  0  0  0  0  0  0  0
   -4.4319   10.5227  -17.8215 C   0  0  2  0  0  0  0  0  0  0  0  0
   -4.9557    9.2345  -18.4645 C   0  0  0  0  0  0  0  0  0  0  0  0
   -6.4051    9.0804  -17.9933 C   0  0  0  0  0  0  0  0  0  0  0  0
   -6.7521   10.3540  -17.2176 C   0  0  2  0  0  0  0  0  0  0  0  0
   -8.1812   10.8934  -17.4006 C   0  0  0  0  0  0  0  0  0  0  0  0
   -8.6605   12.0623  -16.4731 C   0  0  0  0  0  0  0  0  0  0  0  0
   -7.5161   12.4748  -15.5249 C   0  0  0  0  0  0  0  0  0  0  0  0
   -8.9555   13.2632  -17.4075 C   0  0  0  0  0  0  0  0  0  0  0  0
   -9.9391   11.6950  -15.6558 C   0  0  1  0  0  0  0  0  0  0  0  0
  -10.4179   12.7656  -14.6746 C   0  0  0  0  0  0  0  0  0  0  0  0
  -11.0423   11.4288  -16.5236 O   0  0  0  0  0  0  0  0  0  0  0  0
   -5.7082   11.3637  -17.7127 C   0  0  0  0  0  0  0  0  0  0  0  0
  1  2  1  0
  2  3  1  0
  4  3  1  1
  4  5  1  0
  5  6  2  0
  6  7  1  0
  7  8  2  0
  8  9  1  0
  9 10  2  0
  4 11  1  0
 11 12  1  6
 12 13  1  0
 13 14  1  0
 14 15  1  6
 15 16  1  0
 16 17  1  0
 16 18  1  0
 16 19  1  0
 19 20  1  1
 19 21  1  0
 14 22  1  0
 10  5  1  0
 22 11  1  0
M  END
>  <CHROM.0>  (30) 
179.93950864,62.46151757,-176.64719031,63.32114439,33.01434987,86.85389057
178.76925532,177.35305614,-70.82398649,-52.62494532

>  <CHROM.1>  (30) 
-178.98322001,-62.71413393,113.06659992,-58.65056095,170.97881294,1.14443125
176.90755117,150.20543605,-5.27118471,11.78738025,-17.45527195,0.11060237
-0.26544297,-2.71017035

>  <Name>  (30) 
denovo_401

>  <RI>  (30) 
-1.5254e+09

>  <Rbt.Current_Directory>  (30) 
/tmp/claude-0/-home-user-Rare-cancers/1af35c7f-7dc4-53ce-91d2-1631a2a10a85/scratchpad/smwork/cross/dock_8XTT-model8

>  <Rbt.Executable>  (30) 
rbdock - v25.07-alpha

>  <Rbt.Library>  (30) 
libRbt.so (25.07, Buildalpha)

>  <Rbt.Parameter_File>  (30) 
/tmp/claude-0/-home-user-Rare-cancers/1af35c7f-7dc4-53ce-91d2-1631a2a10a85/scratchpad/rdroot/share/rDock/data/scripts/dock.prm

>  <Rbt.Receptor>  (30) 
rec.prm

>  <SCORE>  (30) 
-0.6079

>  <SCORE.INTER>  (30) 
-9.5351

>  <SCORE.INTER.CONST>  (30) 
1

>  <SCORE.INTER.POLAR>  (30) 
-0.661229

>  <SCORE.INTER.REPUL>  (30) 
0.0202257

>  <SCORE.INTER.ROT>  (30) 
7

>  <SCORE.INTER.VDW>  (30) 
-19.7881

>  <SCORE.INTER.norm>  (30) 
-0.433414

>  <SCORE.INTRA>  (30) 
7.38967

>  <SCORE.INTRA.DIHEDRAL>  (30) 
7.95786

>  <SCORE.INTRA.DIHEDRAL.0>  (30) 
3.78927

>  <SCORE.INTRA.POLAR>  (30) 
0

>  <SCORE.INTRA.POLAR.0>  (30) 
0

>  <SCORE.INTRA.REPUL>  (30) 
0

>  <SCORE.INTRA.REPUL.0>  (30) 
0

>  <SCORE.INTRA.VDW>  (30) 
3.41074

>  <SCORE.INTRA.VDW.0>  (30) 
1.02728

>  <SCORE.INTRA.norm>  (30) 
0.335894

>  <SCORE.RESTR>  (30) 
0.00383409

>  <SCORE.RESTR.CAVITY>  (30) 
0.00383409

>  <SCORE.RESTR.norm>  (30) 
0.000174277

>  <SCORE.SYSTEM>  (30) 
1.53374

>  <SCORE.SYSTEM.CONST>  (30) 
0

>  <SCORE.SYSTEM.DIHEDRAL>  (30) 
5.52902

>  <SCORE.SYSTEM.POLAR>  (30) 
-0.457943

>  <SCORE.SYSTEM.REPUL>  (30) 
0.0903818

>  <SCORE.SYSTEM.VDW>  (30) 
-0.125678

>  <SCORE.SYSTEM.norm>  (30) 
0.0697153

>  <SCORE.heavy>  (30) 
22

>  <SCORE.norm>  (30) 
-0.0276303

$$$$
denovo_401
     RDKit          3D

 22 23  0  0  0  0  0  0  0  0999 V2000
   -7.5298    8.5886  -17.8388 C   0  0  0  0  0  0  0  0  0  0  0  0
   -6.2166    8.3298  -17.3603 O   0  0  0  0  0  0  0  0  0  0  0  0
   -5.2310    9.0423  -18.1115 C   0  0  0  0  0  0  0  0  0  0  0  0
   -4.9422   10.4091  -17.4533 C   0  0  2  0  0  0  0  0  0  0  0  0
   -6.2261   11.2301  -17.4005 C   0  0  0  0  0  0  0  0  0  0  0  0
   -6.7992   11.7017  -18.5913 C   0  0  0  0  0  0  0  0  0  0  0  0
   -7.9727   12.4572  -18.5659 C   0  0  0  0  0  0  0  0  0  0  0  0
   -8.5875   12.7518  -17.3513 C   0  0  0  0  0  0  0  0  0  0  0  0
   -8.0295   12.2916  -16.1609 C   0  0  0  0  0  0  0  0  0  0  0  0
   -6.8558   11.5361  -16.1837 C   0  0  0  0  0  0  0  0  0  0  0  0
   -3.7954   11.1820  -18.1534 C   0  0  2  0  0  0  0  0  0  0  0  0
   -2.4169   10.5230  -18.0388 C   0  0  0  0  0  0  0  0  0  0  0  0
   -1.3912   11.6549  -18.1543 C   0  0  0  0  0  0  0  0  0  0  0  0
   -2.1836   12.9648  -18.1740 C   0  0  2  0  0  0  0  0  0  0  0  0
   -1.5543   14.1514  -17.4239 C   0  0  0  0  0  0  0  0  0  0  0  0
   -1.7881   15.5958  -17.9854 C   0  0  0  0  0  0  0  0  0  0  0  0
   -3.1472   16.1312  -17.4907 C   0  0  0  0  0  0  0  0  0  0  0  0
   -0.6779   16.4847  -17.3691 C   0  0  0  0  0  0  0  0  0  0  0  0
   -1.7147   15.6537  -19.5439 C   0  0  1  0  0  0  0  0  0  0  0  0
   -0.4331   15.0912  -20.1596 C   0  0  0  0  0  0  0  0  0  0  0  0
   -2.7927   14.9256  -20.1344 O   0  0  0  0  0  0  0  0  0  0  0  0
   -3.5329   12.5699  -17.5593 C   0  0  0  0  0  0  0  0  0  0  0  0
  1  2  1  0
  2  3  1  0
  4  3  1  6
  4  5  1  0
  5  6  2  0
  6  7  1  0
  7  8  2  0
  8  9  1  0
  9 10  2  0
  4 11  1  0
 11 12  1  1
 12 13  1  0
 13 14  1  0
 14 15  1  1
 15 16  1  0
 16 17  1  0
 16 18  1  0
 16 19  1  0
 19 20  1  6
 19 21  1  0
 14 22  1  0
 10  5  1  0
 22 11  1  0
M  END
>  <CHROM.0>  (31) 
178.46443980,65.75831444,-177.42426068,-64.96792312,34.34641104,-27.17978172
-65.87179962,-60.17648151,-71.17494321,65.81864556

>  <CHROM.1>  (31) 
91.79417688,-59.72033017,-68.05428030,-65.89450092,146.77762637,83.33388187
-54.50924092,173.50030961,-4.20721445,12.52337679,-17.99620411,-2.41961575
0.18986790,-0.01616598

>  <Name>  (31) 
denovo_401

>  <RI>  (31) 
-1.5254e+09

>  <Rbt.Current_Directory>  (31) 
/tmp/claude-0/-home-user-Rare-cancers/1af35c7f-7dc4-53ce-91d2-1631a2a10a85/scratchpad/smwork/cross/dock_8XTT-model8

>  <Rbt.Executable>  (31) 
rbdock - v25.07-alpha

>  <Rbt.Library>  (31) 
libRbt.so (25.07, Buildalpha)

>  <Rbt.Parameter_File>  (31) 
/tmp/claude-0/-home-user-Rare-cancers/1af35c7f-7dc4-53ce-91d2-1631a2a10a85/scratchpad/rdroot/share/rDock/data/scripts/dock.prm

>  <Rbt.Receptor>  (31) 
rec.prm

>  <SCORE>  (31) 
-0.4018

>  <SCORE.INTER>  (31) 
-4.7106

>  <SCORE.INTER.CONST>  (31) 
1

>  <SCORE.INTER.POLAR>  (31) 
0

>  <SCORE.INTER.REPUL>  (31) 
0

>  <SCORE.INTER.ROT>  (31) 
7

>  <SCORE.INTER.VDW>  (31) 
-17.1106

>  <SCORE.INTER.norm>  (31) 
-0.214118

>  <SCORE.INTRA>  (31) 
3.99123

>  <SCORE.INTRA.DIHEDRAL>  (31) 
7.16748

>  <SCORE.INTRA.DIHEDRAL.0>  (31) 
3.78927

>  <SCORE.INTRA.POLAR>  (31) 
0

>  <SCORE.INTRA.POLAR.0>  (31) 
0

>  <SCORE.INTRA.REPUL>  (31) 
0

>  <SCORE.INTRA.REPUL.0>  (31) 
0

>  <SCORE.INTRA.VDW>  (31) 
0.407488

>  <SCORE.INTRA.VDW.0>  (31) 
1.02728

>  <SCORE.INTRA.norm>  (31) 
0.181419

>  <SCORE.RESTR>  (31) 
0

>  <SCORE.RESTR.CAVITY>  (31) 
0

>  <SCORE.RESTR.norm>  (31) 
0

>  <SCORE.SYSTEM>  (31) 
0.317622

>  <SCORE.SYSTEM.CONST>  (31) 
0

>  <SCORE.SYSTEM.DIHEDRAL>  (31) 
6.08916

>  <SCORE.SYSTEM.POLAR>  (31) 
-1.11604

>  <SCORE.SYSTEM.VDW>  (31) 
1.06757

>  <SCORE.SYSTEM.norm>  (31) 
0.0144374

>  <SCORE.heavy>  (31) 
22

>  <SCORE.norm>  (31) 
-0.0182614

$$$$
denovo_401
     RDKit          3D

 22 23  0  0  0  0  0  0  0  0999 V2000
   -1.0932   10.5385  -20.2640 C   0  0  0  0  0  0  0  0  0  0  0  0
   -0.8904   10.8431  -18.8905 O   0  0  0  0  0  0  0  0  0  0  0  0
   -2.0152   10.4640  -18.0940 C   0  0  0  0  0  0  0  0  0  0  0  0
   -3.2037   11.4132  -18.3616 C   0  0  2  0  0  0  0  0  0  0  0  0
   -2.8337   12.8272  -17.9270 C   0  0  0  0  0  0  0  0  0  0  0  0
   -2.6459   13.1093  -16.5654 C   0  0  0  0  0  0  0  0  0  0  0  0
   -2.3095   14.3973  -16.1452 C   0  0  0  0  0  0  0  0  0  0  0  0
   -2.1576   15.4192  -17.0793 C   0  0  0  0  0  0  0  0  0  0  0  0
   -2.3422   15.1546  -18.4343 C   0  0  0  0  0  0  0  0  0  0  0  0
   -2.6789   13.8674  -18.8569 C   0  0  0  0  0  0  0  0  0  0  0  0
   -4.5174   10.9329  -17.6937 C   0  0  2  0  0  0  0  0  0  0  0  0
   -4.7920    9.4316  -17.8290 C   0  0  0  0  0  0  0  0  0  0  0  0
   -6.3127    9.2662  -17.7471 C   0  0  0  0  0  0  0  0  0  0  0  0
   -6.9070   10.6771  -17.7258 C   0  0  2  0  0  0  0  0  0  0  0  0
   -8.2209   10.8731  -18.5017 C   0  0  0  0  0  0  0  0  0  0  0  0
   -8.9932   12.2258  -18.3287 C   0  0  0  0  0  0  0  0  0  0  0  0
   -8.1215   13.3903  -18.8412 C   0  0  0  0  0  0  0  0  0  0  0  0
  -10.2409   12.1319  -19.2435 C   0  0  0  0  0  0  0  0  0  0  0  0
   -9.4317   12.4826  -16.8524 C   0  0  1  0  0  0  0  0  0  0  0  0
   -8.2930   12.5486  -15.8340 C   0  0  0  0  0  0  0  0  0  0  0  0
  -10.1410   13.7174  -16.7367 O   0  0  0  0  0  0  0  0  0  0  0  0
   -5.7818   11.5424  -18.3084 C   0  0  0  0  0  0  0  0  0  0  0  0
  1  2  1  0
  2  3  1  0
  4  3  1  1
  4  5  1  0
  5  6  2  0
  6  7  1  0
  7  8  2  0
  8  9  1  0
  9 10  2  0
  4 11  1  0
 11 12  1  6
 12 13  1  0
 13 14  1  0
 14 15  1  6
 15 16  1  0
 16 17  1  0
 16 18  1  0
 16 19  1  0
 19 20  1  1
 19 21  1  0
 14 22  1  0
 10  5  1  0
 22 11  1  0
M  END
>  <CHROM.0>  (32) 
63.81151023,64.15211756,-64.47623578,-65.20787250,33.67047410,-145.61097390
42.76996017,-57.14929706,-71.98309128,65.99217034

>  <CHROM.1>  (32) 
-71.72578466,-63.58152948,-67.52766768,-43.21488779,170.36308445,62.80097000
59.70949791,176.71602561,-5.24814064,12.12326494,-17.92993699,0.01511644
-0.07862909,-2.84098967

>  <Name>  (32) 
denovo_401

>  <RI>  (32) 
-1.5254e+09

>  <Rbt.Current_Directory>  (32) 
/tmp/claude-0/-home-user-Rare-cancers/1af35c7f-7dc4-53ce-91d2-1631a2a10a85/scratchpad/smwork/cross/dock_8XTT-model8

>  <Rbt.Executable>  (32) 
rbdock - v25.07-alpha

>  <Rbt.Library>  (32) 
libRbt.so (25.07, Buildalpha)

>  <Rbt.Parameter_File>  (32) 
/tmp/claude-0/-home-user-Rare-cancers/1af35c7f-7dc4-53ce-91d2-1631a2a10a85/scratchpad/rdroot/share/rDock/data/scripts/dock.prm

>  <Rbt.Receptor>  (32) 
rec.prm

>  <SCORE>  (32) 
1.2848

>  <SCORE.INTER>  (32) 
-6.80226

>  <SCORE.INTER.CONST>  (32) 
1

>  <SCORE.INTER.POLAR>  (32) 
-0.519628

>  <SCORE.INTER.REPUL>  (32) 
0.0616293

>  <SCORE.INTER.ROT>  (32) 
7

>  <SCORE.INTER.VDW>  (32) 
-17.7437

>  <SCORE.INTER.norm>  (32) 
-0.309194

>  <SCORE.INTRA>  (32) 
3.20934

>  <SCORE.INTRA.DIHEDRAL>  (32) 
-0.505387

>  <SCORE.INTRA.DIHEDRAL.0>  (32) 
3.78927

>  <SCORE.INTRA.POLAR>  (32) 
0

>  <SCORE.INTRA.POLAR.0>  (32) 
0

>  <SCORE.INTRA.REPUL>  (32) 
0

>  <SCORE.INTRA.REPUL.0>  (32) 
0

>  <SCORE.INTRA.VDW>  (32) 
3.46204

>  <SCORE.INTRA.VDW.0>  (32) 
1.02728

>  <SCORE.INTRA.norm>  (32) 
0.145879

>  <SCORE.RESTR>  (32) 
0.101646

>  <SCORE.RESTR.CAVITY>  (32) 
0.101646

>  <SCORE.RESTR.norm>  (32) 
0.00462029

>  <SCORE.SYSTEM>  (32) 
4.77611

>  <SCORE.SYSTEM.CONST>  (32) 
0

>  <SCORE.SYSTEM.DIHEDRAL>  (32) 
7.72221

>  <SCORE.SYSTEM.POLAR>  (32) 
-1.15689

>  <SCORE.SYSTEM.REPUL>  (32) 
0.207889

>  <SCORE.SYSTEM.VDW>  (32) 
3.80899

>  <SCORE.SYSTEM.norm>  (32) 
0.217096

>  <SCORE.heavy>  (32) 
22

>  <SCORE.norm>  (32) 
0.0584016

$$$$
denovo_401
     RDKit          3D

 22 23  0  0  0  0  0  0  0  0999 V2000
   -5.7736    6.5656  -20.3213 C   0  0  0  0  0  0  0  0  0  0  0  0
   -5.5423    7.5963  -19.3703 O   0  0  0  0  0  0  0  0  0  0  0  0
   -6.7309    8.3438  -19.1021 C   0  0  0  0  0  0  0  0  0  0  0  0
   -6.3834    9.6509  -18.3566 C   0  0  2  0  0  0  0  0  0  0  0  0
   -7.6605   10.4409  -18.0921 C   0  0  0  0  0  0  0  0  0  0  0  0
   -8.3359   11.0490  -19.1611 C   0  0  0  0  0  0  0  0  0  0  0  0
   -9.5052   11.7790  -18.9412 C   0  0  0  0  0  0  0  0  0  0  0  0
  -10.0137   11.9116  -17.6513 C   0  0  0  0  0  0  0  0  0  0  0  0
   -9.3534   11.3146  -16.5799 C   0  0  0  0  0  0  0  0  0  0  0  0
   -8.1837   10.5843  -16.7973 C   0  0  0  0  0  0  0  0  0  0  0  0
   -5.3252   10.5036  -19.1019 C   0  0  2  0  0  0  0  0  0  0  0  0
   -3.9018    9.9384  -19.0580 C   0  0  0  0  0  0  0  0  0  0  0  0
   -2.9609   11.1376  -19.2103 C   0  0  0  0  0  0  0  0  0  0  0  0
   -3.8394   12.3912  -19.1807 C   0  0  2  0  0  0  0  0  0  0  0  0
   -3.2564   13.6128  -18.4494 C   0  0  0  0  0  0  0  0  0  0  0  0
   -2.1946   14.4909  -19.1961 C   0  0  0  0  0  0  0  0  0  0  0  0
   -0.9605   13.6322  -19.5402 C   0  0  0  0  0  0  0  0  0  0  0  0
   -2.8536   14.9261  -20.5298 C   0  0  0  0  0  0  0  0  0  0  0  0
   -1.7706   15.7491  -18.3745 C   0  0  1  0  0  0  0  0  0  0  0  0
   -1.3730   15.4788  -16.9231 C   0  0  0  0  0  0  0  0  0  0  0  0
   -0.6524   16.4016  -18.9785 O   0  0  0  0  0  0  0  0  0  0  0  0
   -5.1287   11.9023  -18.5076 C   0  0  0  0  0  0  0  0  0  0  0  0
  1  2  1  0
  2  3  1  0
  4  3  1  6
  4  5  1  0
  5  6  2  0
  6  7  1  0
  7  8  2  0
  8  9  1  0
  9 10  2  0
  4 11  1  0
 11 12  1  1
 12 13  1  0
 13 14  1  0
 14 15  1  1
 15 16  1  0
 16 17  1  0
 16 18  1  0
 16 19  1  0
 19 20  1  1
 19 21  1  0
 14 22  1  0
 10  5  1  0
 22 11  1  0
M  END
>  <CHROM.0>  (33) 
62.62357319,66.13788771,72.76271764,64.14726938,-178.65776006,91.80068368
-28.87436880,71.20083816,61.01313473,179.23787054

>  <CHROM.1>  (33) 
-165.88106276,179.42366359,-70.40037464,-72.56726319,79.10456558,-60.75595849
49.69140208,62.16441030,-4.95254445,11.81625822,-18.73389383,-2.46017273
0.26830878,0.25773109

>  <Name>  (33) 
denovo_401

>  <RI>  (33) 
-1.5254e+09

>  <Rbt.Current_Directory>  (33) 
/tmp/claude-0/-home-user-Rare-cancers/1af35c7f-7dc4-53ce-91d2-1631a2a10a85/scratchpad/smwork/cross/dock_8XTT-model8

>  <Rbt.Executable>  (33) 
rbdock - v25.07-alpha

>  <Rbt.Library>  (33) 
libRbt.so (25.07, Buildalpha)

>  <Rbt.Parameter_File>  (33) 
/tmp/claude-0/-home-user-Rare-cancers/1af35c7f-7dc4-53ce-91d2-1631a2a10a85/scratchpad/rdroot/share/rDock/data/scripts/dock.prm

>  <Rbt.Receptor>  (33) 
rec.prm

>  <SCORE>  (33) 
1.6490

>  <SCORE.INTER>  (33) 
-0.870832

>  <SCORE.INTER.CONST>  (33) 
1

>  <SCORE.INTER.POLAR>  (33) 
0

>  <SCORE.INTER.REPUL>  (33) 
0

>  <SCORE.INTER.ROT>  (33) 
7

>  <SCORE.INTER.VDW>  (33) 
-13.2708

>  <SCORE.INTER.norm>  (33) 
-0.0395833

>  <SCORE.INTRA>  (33) 
1.5057

>  <SCORE.INTRA.DIHEDRAL>  (33) 
0.842577

>  <SCORE.INTRA.DIHEDRAL.0>  (33) 
3.78927

>  <SCORE.INTRA.POLAR>  (33) 
0

>  <SCORE.INTRA.POLAR.0>  (33) 
0

>  <SCORE.INTRA.REPUL>  (33) 
0

>  <SCORE.INTRA.REPUL.0>  (33) 
0

>  <SCORE.INTRA.VDW>  (33) 
1.08441

>  <SCORE.INTRA.VDW.0>  (33) 
1.02728

>  <SCORE.INTRA.norm>  (33) 
0.0684409

>  <SCORE.RESTR>  (33) 
0.00211325

>  <SCORE.RESTR.CAVITY>  (33) 
0.00211325

>  <SCORE.RESTR.norm>  (33) 
9.60569e-05

>  <SCORE.SYSTEM>  (33) 
1.01201

>  <SCORE.SYSTEM.CONST>  (33) 
0

>  <SCORE.SYSTEM.DIHEDRAL>  (33) 
7.43805

>  <SCORE.SYSTEM.POLAR>  (33) 
-0.708616

>  <SCORE.SYSTEM.REPUL>  (33) 
0.10822

>  <SCORE.SYSTEM.VDW>  (33) 
-0.838819

>  <SCORE.SYSTEM.norm>  (33) 
0.0460004

>  <SCORE.heavy>  (33) 
22

>  <SCORE.norm>  (33) 
0.074954

$$$$
denovo_401
     RDKit          3D

 22 23  0  0  0  0  0  0  0  0999 V2000
  -18.0399    7.0581  -13.1455 C   0  0  0  0  0  0  0  0  0  0  0  0
  -18.7009    6.3797  -14.2054 O   0  0  0  0  0  0  0  0  0  0  0  0
  -17.8461    5.4214  -14.8332 C   0  0  0  0  0  0  0  0  0  0  0  0
  -18.5548    4.7904  -16.0517 C   0  0  2  0  0  0  0  0  0  0  0  0
  -17.6474    3.7380  -16.6796 C   0  0  0  0  0  0  0  0  0  0  0  0
  -17.5301    2.4745  -16.0808 C   0  0  0  0  0  0  0  0  0  0  0  0
  -16.7031    1.4972  -16.6373 C   0  0  0  0  0  0  0  0  0  0  0  0
  -15.9826    1.7701  -17.7976 C   0  0  0  0  0  0  0  0  0  0  0  0
  -16.0879    3.0203  -18.4026 C   0  0  0  0  0  0  0  0  0  0  0  0
  -16.9141    3.9994  -17.8478 C   0  0  0  0  0  0  0  0  0  0  0  0
  -19.0152    5.8447  -17.0905 C   0  0  2  0  0  0  0  0  0  0  0  0
  -18.0137    6.9773  -17.3392 C   0  0  0  0  0  0  0  0  0  0  0  0
  -18.8380    8.1822  -17.8033 C   0  0  0  0  0  0  0  0  0  0  0  0
  -20.3104    7.7857  -17.6660 C   0  0  2  0  0  0  0  0  0  0  0  0
  -21.2705    8.8902  -17.1916 C   0  0  0  0  0  0  0  0  0  0  0  0
  -21.0765   10.3390  -17.7567 C   0  0  0  0  0  0  0  0  0  0  0  0
  -22.4494   11.0251  -17.9083 C   0  0  0  0  0  0  0  0  0  0  0  0
  -20.2751   11.1186  -16.6832 C   0  0  0  0  0  0  0  0  0  0  0  0
  -20.3064   10.3560  -19.1148 C   0  0  1  0  0  0  0  0  0  0  0  0
  -20.9780    9.5930  -20.2570 C   0  0  0  0  0  0  0  0  0  0  0  0
  -20.1238   11.6934  -19.5829 O   0  0  0  0  0  0  0  0  0  0  0  0
  -20.2699    6.6181  -16.6714 C   0  0  0  0  0  0  0  0  0  0  0  0
  1  2  1  0
  2  3  1  0
  4  3  1  1
  4  5  1  0
  5  6  2  0
  6  7  1  0
  7  8  2  0
  8  9  1  0
  9 10  2  0
  4 11  1  0
 11 12  1  1
 12 13  1  0
 13 14  1  0
 14 15  1  1
 15 16  1  0
 16 17  1  0
 16 18  1  0
 16 19  1  0
 19 20  1  6
 19 21  1  0
 14 22  1  0
 10  5  1  0
 22 11  1  0
M  END
>  <CHROM.0>  (34) 
-59.08775271,65.70973611,76.00402068,-176.27214369,-170.59283879,-91.31161623
44.23143558,67.65280976,62.19125732,65.71784884

>  <CHROM.1>  (34) 
-175.24397557,-178.09105850,77.83393991,40.66810507,40.42820187,145.72943738
60.49365598,-61.10362968,-19.00884004,6.89948093,-17.11902334,0.22528772
-1.08521107,1.59135082

>  <Name>  (34) 
denovo_401

>  <RI>  (34) 
-1.5254e+09

>  <Rbt.Current_Directory>  (34) 
/tmp/claude-0/-home-user-Rare-cancers/1af35c7f-7dc4-53ce-91d2-1631a2a10a85/scratchpad/smwork/cross/dock_8XTT-model8

>  <Rbt.Executable>  (34) 
rbdock - v25.07-alpha

>  <Rbt.Library>  (34) 
libRbt.so (25.07, Buildalpha)

>  <Rbt.Parameter_File>  (34) 
/tmp/claude-0/-home-user-Rare-cancers/1af35c7f-7dc4-53ce-91d2-1631a2a10a85/scratchpad/rdroot/share/rDock/data/scripts/dock.prm

>  <Rbt.Receptor>  (34) 
rec.prm

>  <SCORE>  (34) 
3.7228

>  <SCORE.INTER>  (34) 
-5.16144

>  <SCORE.INTER.CONST>  (34) 
1

>  <SCORE.INTER.POLAR>  (34) 
0

>  <SCORE.INTER.REPUL>  (34) 
0.00821378

>  <SCORE.INTER.ROT>  (34) 
7

>  <SCORE.INTER.VDW>  (34) 
-17.6025

>  <SCORE.INTER.norm>  (34) 
-0.234611

>  <SCORE.INTRA>  (34) 
5.31637

>  <SCORE.INTRA.DIHEDRAL>  (34) 
4.82722

>  <SCORE.INTRA.DIHEDRAL.0>  (34) 
3.78927

>  <SCORE.INTRA.POLAR>  (34) 
0

>  <SCORE.INTRA.POLAR.0>  (34) 
0

>  <SCORE.INTRA.REPUL>  (34) 
0

>  <SCORE.INTRA.REPUL.0>  (34) 
0

>  <SCORE.INTRA.VDW>  (34) 
2.90277

>  <SCORE.INTRA.VDW.0>  (34) 
1.02728

>  <SCORE.INTRA.norm>  (34) 
0.241653

>  <SCORE.RESTR>  (34) 
1.04954

>  <SCORE.RESTR.CAVITY>  (34) 
1.04954

>  <SCORE.RESTR.norm>  (34) 
0.0477061

>  <SCORE.SYSTEM>  (34) 
2.51838

>  <SCORE.SYSTEM.CONST>  (34) 
0

>  <SCORE.SYSTEM.DIHEDRAL>  (34) 
5.44225

>  <SCORE.SYSTEM.POLAR>  (34) 
-0.877941

>  <SCORE.SYSTEM.REPUL>  (34) 
0.184325

>  <SCORE.SYSTEM.VDW>  (34) 
1.86063

>  <SCORE.SYSTEM.norm>  (34) 
0.114472

>  <SCORE.heavy>  (34) 
22

>  <SCORE.norm>  (34) 
0.16922

$$$$
denovo_401
     RDKit          3D

 22 23  0  0  0  0  0  0  0  0999 V2000
    0.2295   10.0290  -19.5667 C   0  0  0  0  0  0  0  0  0  0  0  0
   -0.7403   11.0628  -19.4608 O   0  0  0  0  0  0  0  0  0  0  0  0
   -1.8617   10.6560  -18.6732 C   0  0  0  0  0  0  0  0  0  0  0  0
   -3.0060   11.6852  -18.8011 C   0  0  2  0  0  0  0  0  0  0  0  0
   -2.6354   12.9554  -18.0433 C   0  0  0  0  0  0  0  0  0  0  0  0
   -2.0617   12.8607  -16.7664 C   0  0  0  0  0  0  0  0  0  0  0  0
   -1.7171   14.0106  -16.0539 C   0  0  0  0  0  0  0  0  0  0  0  0
   -1.9423   15.2688  -16.6073 C   0  0  0  0  0  0  0  0  0  0  0  0
   -2.5123   15.3786  -17.8735 C   0  0  0  0  0  0  0  0  0  0  0  0
   -2.8580   14.2300  -18.5878 C   0  0  0  0  0  0  0  0  0  0  0  0
   -4.3745   11.1211  -18.3410 C   0  0  2  0  0  0  0  0  0  0  0  0
   -5.5505   11.4662  -19.2606 C   0  0  0  0  0  0  0  0  0  0  0  0
   -6.8030   11.4447  -18.3790 C   0  0  0  0  0  0  0  0  0  0  0  0
   -6.3226   11.2461  -16.9388 C   0  0  2  0  0  0  0  0  0  0  0  0
   -7.0903   12.0200  -15.8532 C   0  0  0  0  0  0  0  0  0  0  0  0
   -8.6363   12.2098  -16.0264 C   0  0  0  0  0  0  0  0  0  0  0  0
   -9.2974   10.8466  -16.3149 C   0  0  0  0  0  0  0  0  0  0  0  0
   -9.1666   12.7117  -14.6592 C   0  0  0  0  0  0  0  0  0  0  0  0
   -8.9937   13.2364  -17.1472 C   0  0  1  0  0  0  0  0  0  0  0  0
   -9.5026   12.6270  -18.4540 C   0  0  0  0  0  0  0  0  0  0  0  0
  -10.0088   14.1407  -16.7081 O   0  0  0  0  0  0  0  0  0  0  0  0
   -4.8514   11.6778  -16.9953 C   0  0  0  0  0  0  0  0  0  0  0  0
  1  2  1  0
  2  3  1  0
  4  3  1  1
  4  5  1  0
  5  6  2  0
  6  7  1  0
  7  8  2  0
  8  9  1  0
  9 10  2  0
  4 11  1  0
 11 12  1  6
 12 13  1  0
 13 14  1  0
 14 15  1  1
 15 16  1  0
 16 17  1  0
 16 18  1  0
 16 19  1  0
 19 20  1  6
 19 21  1  0
 14 22  1  0
 10  5  1  0
 22 11  1  0
M  END
>  <CHROM.0>  (35) 
179.33123057,-72.38667548,-177.96197663,178.81195598,-175.39868711,86.94501084
-55.21510274,-178.17244482,-71.45988735,66.85513810

>  <CHROM.1>  (35) 
-169.13209432,-72.26473787,-44.02381691,-136.41386105,35.92279972,50.89565894
104.56870937,77.86805161,-5.06069731,12.37624180,-17.53071159,0.15179139
-0.18852917,-2.65064924

>  <Name>  (35) 
denovo_401

>  <RI>  (35) 
-1.5254e+09

>  <Rbt.Current_Directory>  (35) 
/tmp/claude-0/-home-user-Rare-cancers/1af35c7f-7dc4-53ce-91d2-1631a2a10a85/scratchpad/smwork/cross/dock_8XTT-model8

>  <Rbt.Executable>  (35) 
rbdock - v25.07-alpha

>  <Rbt.Library>  (35) 
libRbt.so (25.07, Buildalpha)

>  <Rbt.Parameter_File>  (35) 
/tmp/claude-0/-home-user-Rare-cancers/1af35c7f-7dc4-53ce-91d2-1631a2a10a85/scratchpad/rdroot/share/rDock/data/scripts/dock.prm

>  <Rbt.Receptor>  (35) 
rec.prm

>  <SCORE>  (35) 
4.9238

>  <SCORE.INTER>  (35) 
-15.8012

>  <SCORE.INTER.CONST>  (35) 
1

>  <SCORE.INTER.POLAR>  (35) 
-1.49258

>  <SCORE.INTER.REPUL>  (35) 
0.0305101

>  <SCORE.INTER.ROT>  (35) 
7

>  <SCORE.INTER.VDW>  (35) 
-23.279

>  <SCORE.INTER.norm>  (35) 
-0.718237

>  <SCORE.INTRA>  (35) 
16.103

>  <SCORE.INTRA.DIHEDRAL>  (35) 
12.4133

>  <SCORE.INTRA.DIHEDRAL.0>  (35) 
3.78927

>  <SCORE.INTRA.POLAR>  (35) 
0

>  <SCORE.INTRA.POLAR.0>  (35) 
0

>  <SCORE.INTRA.REPUL>  (35) 
0

>  <SCORE.INTRA.REPUL.0>  (35) 
0

>  <SCORE.INTRA.VDW>  (35) 
9.89638

>  <SCORE.INTRA.VDW.0>  (35) 
1.02728

>  <SCORE.INTRA.norm>  (35) 
0.731955

>  <SCORE.RESTR>  (35) 
0.160592

>  <SCORE.RESTR.CAVITY>  (35) 
0.160592

>  <SCORE.RESTR.norm>  (35) 
0.00729964

>  <SCORE.SYSTEM>  (35) 
4.46142

>  <SCORE.SYSTEM.CONST>  (35) 
0

>  <SCORE.SYSTEM.DIHEDRAL>  (35) 
3.34275

>  <SCORE.SYSTEM.POLAR>  (35) 
-1.00175

>  <SCORE.SYSTEM.REPUL>  (35) 
1.42832

>  <SCORE.SYSTEM.VDW>  (35) 
-0.945598

>  <SCORE.SYSTEM.norm>  (35) 
0.202792

>  <SCORE.heavy>  (35) 
22

>  <SCORE.norm>  (35) 
0.223809

$$$$
denovo_401
     RDKit          3D

 22 23  0  0  0  0  0  0  0  0999 V2000
  -20.0153    3.8512  -15.4960 C   0  0  0  0  0  0  0  0  0  0  0  0
  -19.9431    5.2636  -15.6385 O   0  0  0  0  0  0  0  0  0  0  0  0
  -19.0189    5.6446  -16.6603 C   0  0  0  0  0  0  0  0  0  0  0  0
  -18.4551    7.0533  -16.3728 C   0  0  2  0  0  0  0  0  0  0  0  0
  -18.1011    7.1679  -14.8941 C   0  0  0  0  0  0  0  0  0  0  0  0
  -16.9280    6.5682  -14.4115 C   0  0  0  0  0  0  0  0  0  0  0  0
  -16.5860    6.6584  -13.0611 C   0  0  0  0  0  0  0  0  0  0  0  0
  -17.4118    7.3475  -12.1761 C   0  0  0  0  0  0  0  0  0  0  0  0
  -18.5804    7.9469  -12.6403 C   0  0  0  0  0  0  0  0  0  0  0  0
  -18.9246    7.8577  -13.9903 C   0  0  0  0  0  0  0  0  0  0  0  0
  -19.4125    8.1862  -16.8230 C   0  0  2  0  0  0  0  0  0  0  0  0
  -20.6729    7.7070  -17.5507 C   0  0  0  0  0  0  0  0  0  0  0  0
  -21.1064    8.8613  -18.4597 C   0  0  0  0  0  0  0  0  0  0  0  0
  -20.0108    9.9269  -18.3685 C   0  0  2  0  0  0  0  0  0  0  0  0
  -19.6780   10.6731  -19.6720 C   0  0  0  0  0  0  0  0  0  0  0  0
  -20.8354   10.9378  -20.6950 C   0  0  0  0  0  0  0  0  0  0  0  0
  -21.9643   11.7322  -20.0071 C   0  0  0  0  0  0  0  0  0  0  0  0
  -20.2345   11.8368  -21.8054 C   0  0  0  0  0  0  0  0  0  0  0  0
  -21.3980    9.6220  -21.3194 C   0  0  1  0  0  0  0  0  0  0  0  0
  -22.2259    9.8039  -22.5920 C   0  0  0  0  0  0  0  0  0  0  0  0
  -20.3403    8.7232  -21.6579 O   0  0  0  0  0  0  0  0  0  0  0  0
  -18.7981    9.1424  -17.8508 C   0  0  0  0  0  0  0  0  0  0  0  0
  1  2  1  0
  2  3  1  0
  4  3  1  1
  4  5  1  0
  5  6  2  0
  6  7  1  0
  7  8  2  0
  8  9  1  0
  9 10  2  0
  4 11  1  0
 11 12  1  6
 12 13  1  0
 13 14  1  0
 14 15  1  6
 15 16  1  0
 16 17  1  0
 16 18  1  0
 16 19  1  0
 19 20  1  6
 19 21  1  0
 14 22  1  0
 10  5  1  0
 22 11  1  0
M  END
>  <CHROM.0>  (36) 
-54.34291165,62.28251909,79.96583413,-62.67505119,-176.61887202,-155.78549186
-179.82155454,-62.59408016,-71.89401955,-177.44140871

>  <CHROM.1>  (36) 
-153.23750633,43.77407878,76.86638951,-4.21270418,33.28866868,57.40783587
-163.18263245,176.74216153,-19.63556225,8.29276686,-17.48769931,0.80232917
1.07188272,2.77840758

>  <Name>  (36) 
denovo_401

>  <RI>  (36) 
-1.5254e+09

>  <Rbt.Current_Directory>  (36) 
/tmp/claude-0/-home-user-Rare-cancers/1af35c7f-7dc4-53ce-91d2-1631a2a10a85/scratchpad/smwork/cross/dock_8XTT-model8

>  <Rbt.Executable>  (36) 
rbdock - v25.07-alpha

>  <Rbt.Library>  (36) 
libRbt.so (25.07, Buildalpha)

>  <Rbt.Parameter_File>  (36) 
/tmp/claude-0/-home-user-Rare-cancers/1af35c7f-7dc4-53ce-91d2-1631a2a10a85/scratchpad/rdroot/share/rDock/data/scripts/dock.prm

>  <Rbt.Receptor>  (36) 
rec.prm

>  <SCORE>  (36) 
5.7376

>  <SCORE.INTER>  (36) 
-2.42107

>  <SCORE.INTER.CONST>  (36) 
1

>  <SCORE.INTER.POLAR>  (36) 
-0.894427

>  <SCORE.INTER.REPUL>  (36) 
0

>  <SCORE.INTER.ROT>  (36) 
7

>  <SCORE.INTER.VDW>  (36) 
-11.78

>  <SCORE.INTER.norm>  (36) 
-0.110049

>  <SCORE.INTRA>  (36) 
10.0264

>  <SCORE.INTRA.DIHEDRAL>  (36) 
10.6447

>  <SCORE.INTRA.DIHEDRAL.0>  (36) 
3.78927

>  <SCORE.INTRA.POLAR>  (36) 
0

>  <SCORE.INTRA.POLAR.0>  (36) 
0

>  <SCORE.INTRA.REPUL>  (36) 
0

>  <SCORE.INTRA.REPUL.0>  (36) 
0

>  <SCORE.INTRA.VDW>  (36) 
4.70406

>  <SCORE.INTRA.VDW.0>  (36) 
1.02728

>  <SCORE.INTRA.norm>  (36) 
0.455745

>  <SCORE.RESTR>  (36) 
3.38344

>  <SCORE.RESTR.CAVITY>  (36) 
3.38344

>  <SCORE.RESTR.norm>  (36) 
0.153793

>  <SCORE.SYSTEM>  (36) 
-5.25114

>  <SCORE.SYSTEM.CONST>  (36) 
0

>  <SCORE.SYSTEM.DIHEDRAL>  (36) 
3.97248

>  <SCORE.SYSTEM.POLAR>  (36) 
-0.988864

>  <SCORE.SYSTEM.VDW>  (36) 
-3.87524

>  <SCORE.SYSTEM.norm>  (36) 
-0.238688

>  <SCORE.heavy>  (36) 
22

>  <SCORE.norm>  (36) 
0.260801

$$$$
denovo_401
     RDKit          3D

 22 23  0  0  0  0  0  0  0  0999 V2000
   -3.5098    9.0005  -21.6151 C   0  0  0  0  0  0  0  0  0  0  0  0
   -3.6958    9.0861  -20.2085 O   0  0  0  0  0  0  0  0  0  0  0  0
   -4.9769    9.6267  -19.8772 C   0  0  0  0  0  0  0  0  0  0  0  0
   -5.0799    9.8623  -18.3544 C   0  0  2  0  0  0  0  0  0  0  0  0
   -6.2782   10.7574  -18.0577 C   0  0  0  0  0  0  0  0  0  0  0  0
   -6.9675   10.6166  -16.8437 C   0  0  0  0  0  0  0  0  0  0  0  0
   -8.0686   11.4237  -16.5528 C   0  0  0  0  0  0  0  0  0  0  0  0
   -8.4955   12.3803  -17.4708 C   0  0  0  0  0  0  0  0  0  0  0  0
   -7.8220   12.5307  -18.6808 C   0  0  0  0  0  0  0  0  0  0  0  0
   -6.7207   11.7244  -18.9741 C   0  0  0  0  0  0  0  0  0  0  0  0
   -3.7733   10.4322  -17.7456 C   0  0  2  0  0  0  0  0  0  0  0  0
   -3.9756   11.3164  -16.5107 C   0  0  0  0  0  0  0  0  0  0  0  0
   -2.7803   12.2736  -16.4702 C   0  0  0  0  0  0  0  0  0  0  0  0
   -1.9884   12.0417  -17.7598 C   0  0  2  0  0  0  0  0  0  0  0  0
   -1.3757   13.2913  -18.4154 C   0  0  0  0  0  0  0  0  0  0  0  0
   -2.2998   14.5332  -18.6597 C   0  0  0  0  0  0  0  0  0  0  0  0
   -3.5961   14.0847  -19.3650 C   0  0  0  0  0  0  0  0  0  0  0  0
   -2.6862   15.0678  -17.2571 C   0  0  0  0  0  0  0  0  0  0  0  0
   -1.5926   15.6558  -19.4828 C   0  0  1  0  0  0  0  0  0  0  0  0
   -0.5679   16.4866  -18.7098 C   0  0  0  0  0  0  0  0  0  0  0  0
   -0.8964   15.1074  -20.6033 O   0  0  0  0  0  0  0  0  0  0  0  0
   -3.0118   11.3720  -18.6863 C   0  0  0  0  0  0  0  0  0  0  0  0
  1  2  1  0
  2  3  1  0
  4  3  1  6
  4  5  1  0
  5  6  2  0
  6  7  1  0
  7  8  2  0
  8  9  1  0
  9 10  2  0
  4 11  1  0
 11 12  1  1
 12 13  1  0
 13 14  1  0
 14 15  1  6
 15 16  1  0
 16 17  1  0
 16 18  1  0
 16 19  1  0
 19 20  1  1
 19 21  1  0
 14 22  1  0
 10  5  1  0
 22 11  1  0
M  END
>  <CHROM.0>  (37) 
-52.46468039,66.53616331,-61.00757794,66.48569562,-176.25231203,-19.12681434
178.39142175,68.41669631,61.60221367,65.60890176

>  <CHROM.1>  (37) 
-173.26713674,165.41648074,149.46285779,150.59826183,-50.34143886,-49.69305712
-75.56053466,64.90939237,-3.99874834,12.24332618,-18.52842684,-2.56634595
0.44588894,0.41096357

>  <Name>  (37) 
denovo_401

>  <RI>  (37) 
-1.5254e+09

>  <Rbt.Current_Directory>  (37) 
/tmp/claude-0/-home-user-Rare-cancers/1af35c7f-7dc4-53ce-91d2-1631a2a10a85/scratchpad/smwork/cross/dock_8XTT-model8

>  <Rbt.Executable>  (37) 
rbdock - v25.07-alpha

>  <Rbt.Library>  (37) 
libRbt.so (25.07, Buildalpha)

>  <Rbt.Parameter_File>  (37) 
/tmp/claude-0/-home-user-Rare-cancers/1af35c7f-7dc4-53ce-91d2-1631a2a10a85/scratchpad/rdroot/share/rDock/data/scripts/dock.prm

>  <Rbt.Receptor>  (37) 
rec.prm

>  <SCORE>  (37) 
8.5274

>  <SCORE.INTER>  (37) 
-2.09952

>  <SCORE.INTER.CONST>  (37) 
1

>  <SCORE.INTER.POLAR>  (37) 
0

>  <SCORE.INTER.REPUL>  (37) 
0

>  <SCORE.INTER.ROT>  (37) 
7

>  <SCORE.INTER.VDW>  (37) 
-14.4995

>  <SCORE.INTER.norm>  (37) 
-0.0954326

>  <SCORE.INTRA>  (37) 
11.1826

>  <SCORE.INTRA.DIHEDRAL>  (37) 
2.86083

>  <SCORE.INTRA.DIHEDRAL.0>  (37) 
3.78927

>  <SCORE.INTRA.POLAR>  (37) 
0

>  <SCORE.INTRA.POLAR.0>  (37) 
0

>  <SCORE.INTRA.REPUL>  (37) 
0

>  <SCORE.INTRA.REPUL.0>  (37) 
0

>  <SCORE.INTRA.VDW>  (37) 
9.75213

>  <SCORE.INTRA.VDW.0>  (37) 
1.02728

>  <SCORE.INTRA.norm>  (37) 
0.508298

>  <SCORE.RESTR>  (37) 
0.0561518

>  <SCORE.RESTR.CAVITY>  (37) 
0.0561518

>  <SCORE.RESTR.norm>  (37) 
0.00255236

>  <SCORE.SYSTEM>  (37) 
-0.61176

>  <SCORE.SYSTEM.CONST>  (37) 
0

>  <SCORE.SYSTEM.DIHEDRAL>  (37) 
3.89997

>  <SCORE.SYSTEM.POLAR>  (37) 
-0.535413

>  <SCORE.SYSTEM.REPUL>  (37) 
0.31706

>  <SCORE.SYSTEM.VDW>  (37) 
-2.32664

>  <SCORE.SYSTEM.norm>  (37) 
-0.0278073

>  <SCORE.heavy>  (37) 
22

>  <SCORE.norm>  (37) 
0.38761

$$$$
denovo_401
     RDKit          3D

 22 23  0  0  0  0  0  0  0  0999 V2000
   -2.0013   14.2705  -16.4143 C   0  0  0  0  0  0  0  0  0  0  0  0
   -2.0851   12.8719  -16.6537 O   0  0  0  0  0  0  0  0  0  0  0  0
   -3.4376   12.4105  -16.6201 C   0  0  0  0  0  0  0  0  0  0  0  0
   -3.4940   10.8976  -16.9249 C   0  0  2  0  0  0  0  0  0  0  0  0
   -3.0529   10.6515  -18.3636 C   0  0  0  0  0  0  0  0  0  0  0  0
   -3.9956   10.7180  -19.4008 C   0  0  0  0  0  0  0  0  0  0  0  0
   -3.6141   10.4936  -20.7247 C   0  0  0  0  0  0  0  0  0  0  0  0
   -2.2873   10.1988  -21.0289 C   0  0  0  0  0  0  0  0  0  0  0  0
   -1.3404   10.1281  -20.0097 C   0  0  0  0  0  0  0  0  0  0  0  0
   -1.7196   10.3519  -18.6849 C   0  0  0  0  0  0  0  0  0  0  0  0
   -4.8859   10.2790  -16.6376 C   0  0  2  0  0  0  0  0  0  0  0  0
   -5.2126    9.0289  -17.4611 C   0  0  0  0  0  0  0  0  0  0  0  0
   -6.7399    8.9718  -17.5635 C   0  0  0  0  0  0  0  0  0  0  0  0
   -7.2703   10.2654  -16.9394 C   0  0  2  0  0  0  0  0  0  0  0  0
   -8.4934   10.8991  -17.6245 C   0  0  0  0  0  0  0  0  0  0  0  0
   -9.2444   12.0582  -16.8838 C   0  0  0  0  0  0  0  0  0  0  0  0
   -8.2300   13.1288  -16.4327 C   0  0  0  0  0  0  0  0  0  0  0  0
  -10.1808   12.7079  -17.9342 C   0  0  0  0  0  0  0  0  0  0  0  0
  -10.0790   11.5512  -15.6655 C   0  0  1  0  0  0  0  0  0  0  0  0
  -10.5383   12.6360  -14.6907 C   0  0  0  0  0  0  0  0  0  0  0  0
  -11.2627   10.8796  -16.1000 O   0  0  0  0  0  0  0  0  0  0  0  0
   -6.0569   11.2033  -16.9876 C   0  0  0  0  0  0  0  0  0  0  0  0
  1  2  1  0
  2  3  1  0
  4  3  1  6
  4  5  1  0
  5  6  2  0
  6  7  1  0
  7  8  2  0
  8  9  1  0
  9 10  2  0
  4 11  1  0
 11 12  1  6
 12 13  1  0
 13 14  1  0
 14 15  1  6
 15 16  1  0
 16 17  1  0
 16 18  1  0
 16 19  1  0
 19 20  1  1
 19 21  1  0
 14 22  1  0
 10  5  1  0
 22 11  1  0
M  END
>  <CHROM.0>  (38) 
61.48971752,-68.76470555,80.42995764,67.19333951,33.95437520,-156.59818308
-62.65697032,-60.55012123,-76.19026147,177.40691818

>  <CHROM.1>  (38) 
178.33432656,-66.02879888,-87.09756402,153.76729598,168.52475911,50.50056439
164.86539655,92.40639013,-5.78497771,11.25767986,-17.47059776,-0.26774077
0.17529094,0.73590844

>  <Name>  (38) 
denovo_401

>  <RI>  (38) 
-1.5254e+09

>  <Rbt.Current_Directory>  (38) 
/tmp/claude-0/-home-user-Rare-cancers/1af35c7f-7dc4-53ce-91d2-1631a2a10a85/scratchpad/smwork/cross/dock_8XTT-model8

>  <Rbt.Executable>  (38) 
rbdock - v25.07-alpha

>  <Rbt.Library>  (38) 
libRbt.so (25.07, Buildalpha)

>  <Rbt.Parameter_File>  (38) 
/tmp/claude-0/-home-user-Rare-cancers/1af35c7f-7dc4-53ce-91d2-1631a2a10a85/scratchpad/rdroot/share/rDock/data/scripts/dock.prm

>  <Rbt.Receptor>  (38) 
rec.prm

>  <SCORE>  (38) 
14.6122

>  <SCORE.INTER>  (38) 
-5.75476

>  <SCORE.INTER.CONST>  (38) 
1

>  <SCORE.INTER.POLAR>  (38) 
-2.11381

>  <SCORE.INTER.REPUL>  (38) 
0

>  <SCORE.INTER.ROT>  (38) 
7

>  <SCORE.INTER.VDW>  (38) 
-10.9678

>  <SCORE.INTER.norm>  (38) 
-0.26158

>  <SCORE.INTRA>  (38) 
9.38831

>  <SCORE.INTRA.DIHEDRAL>  (38) 
5.88338

>  <SCORE.INTRA.DIHEDRAL.0>  (38) 
3.78927

>  <SCORE.INTRA.POLAR>  (38) 
0

>  <SCORE.INTRA.POLAR.0>  (38) 
0

>  <SCORE.INTRA.REPUL>  (38) 
0

>  <SCORE.INTRA.REPUL.0>  (38) 
0

>  <SCORE.INTRA.VDW>  (38) 
6.44661

>  <SCORE.INTRA.VDW.0>  (38) 
1.02728

>  <SCORE.INTRA.norm>  (38) 
0.426741

>  <SCORE.RESTR>  (38) 
0.0239342

>  <SCORE.RESTR.CAVITY>  (38) 
0.0239342

>  <SCORE.RESTR.norm>  (38) 
0.00108792

>  <SCORE.SYSTEM>  (38) 
10.9547

>  <SCORE.SYSTEM.CONST>  (38) 
0

>  <SCORE.SYSTEM.DIHEDRAL>  (38) 
7.81865

>  <SCORE.SYSTEM.POLAR>  (38) 
-0.992799

>  <SCORE.SYSTEM.REPUL>  (38) 
1.45071

>  <SCORE.SYSTEM.VDW>  (38) 
3.16735

>  <SCORE.SYSTEM.norm>  (38) 
0.497941

>  <SCORE.heavy>  (38) 
22

>  <SCORE.norm>  (38) 
0.66419

$$$$
denovo_401
     RDKit          3D

 22 23  0  0  0  0  0  0  0  0999 V2000
  -21.5522    8.6502  -20.9686 C   0  0  0  0  0  0  0  0  0  0  0  0
  -20.6505    8.2066  -19.9634 O   0  0  0  0  0  0  0  0  0  0  0  0
  -19.5423    9.0976  -19.8178 C   0  0  0  0  0  0  0  0  0  0  0  0
  -18.6487    8.6510  -18.6400 C   0  0  2  0  0  0  0  0  0  0  0  0
  -17.9466    7.3462  -19.0000 C   0  0  0  0  0  0  0  0  0  0  0  0
  -18.2268    6.1815  -18.2694 C   0  0  0  0  0  0  0  0  0  0  0  0
  -17.5936    4.9769  -18.5802 C   0  0  0  0  0  0  0  0  0  0  0  0
  -16.6724    4.9208  -19.6234 C   0  0  0  0  0  0  0  0  0  0  0  0
  -16.3832    6.0692  -20.3567 C   0  0  0  0  0  0  0  0  0  0  0  0
  -17.0149    7.2751  -20.0476 C   0  0  0  0  0  0  0  0  0  0  0  0
  -19.4288    8.5338  -17.3057 C   0  0  2  0  0  0  0  0  0  0  0  0
  -19.9782    9.8589  -16.7674 C   0  0  0  0  0  0  0  0  0  0  0  0
  -20.0883    9.6904  -15.2488 C   0  0  0  0  0  0  0  0  0  0  0  0
  -19.4566    8.3374  -14.9105 C   0  0  2  0  0  0  0  0  0  0  0  0
  -18.6434    8.2739  -13.6060 C   0  0  0  0  0  0  0  0  0  0  0  0
  -17.9987    6.9056  -13.1962 C   0  0  0  0  0  0  0  0  0  0  0  0
  -17.2354    6.3111  -14.3974 C   0  0  0  0  0  0  0  0  0  0  0  0
  -16.9612    7.2296  -12.0912 C   0  0  0  0  0  0  0  0  0  0  0  0
  -19.0494    5.8833  -12.6588 C   0  0  1  0  0  0  0  0  0  0  0  0
  -20.2396    5.6223  -13.5825 C   0  0  0  0  0  0  0  0  0  0  0  0
  -18.4475    4.6106  -12.4162 O   0  0  0  0  0  0  0  0  0  0  0  0
  -18.5743    8.0451  -16.1313 C   0  0  0  0  0  0  0  0  0  0  0  0
  1  2  1  0
  2  3  1  0
  4  3  1  6
  4  5  1  0
  5  6  2  0
  6  7  1  0
  7  8  2  0
  8  9  1  0
  9 10  2  0
  4 11  1  0
 11 12  1  1
 12 13  1  0
 13 14  1  0
 14 15  1  1
 15 16  1  0
 16 17  1  0
 16 18  1  0
 16 19  1  0
 19 20  1  6
 19 21  1  0
 14 22  1  0
 10  5  1  0
 22 11  1  0
M  END
>  <CHROM.0>  (39) 
63.42828488,-71.47902095,171.98300299,-64.21449203,33.08148925,-163.80847743
44.27866895,-64.65854556,63.69870383,-177.77450737

>  <CHROM.1>  (39) 
175.21688245,69.06339322,-115.78747348,-65.21469010,178.78976228,49.07439504
53.71344842,168.50283924,-18.69593303,7.29513839,-16.64130149,1.68071712
0.87337098,-1.48299917

>  <Name>  (39) 
denovo_401

>  <RI>  (39) 
-1.5254e+09

>  <Rbt.Current_Directory>  (39) 
/tmp/claude-0/-home-user-Rare-cancers/1af35c7f-7dc4-53ce-91d2-1631a2a10a85/scratchpad/smwork/cross/dock_8XTT-model8

>  <Rbt.Executable>  (39) 
rbdock - v25.07-alpha

>  <Rbt.Library>  (39) 
libRbt.so (25.07, Buildalpha)

>  <Rbt.Parameter_File>  (39) 
/tmp/claude-0/-home-user-Rare-cancers/1af35c7f-7dc4-53ce-91d2-1631a2a10a85/scratchpad/rdroot/share/rDock/data/scripts/dock.prm

>  <Rbt.Receptor>  (39) 
rec.prm

>  <SCORE>  (39) 
37.5175

>  <SCORE.INTER>  (39) 
14.5609

>  <SCORE.INTER.CONST>  (39) 
1

>  <SCORE.INTER.POLAR>  (39) 
-0.669409

>  <SCORE.INTER.REPUL>  (39) 
0

>  <SCORE.INTER.ROT>  (39) 
7

>  <SCORE.INTER.VDW>  (39) 
4.43691

>  <SCORE.INTER.norm>  (39) 
0.66186

>  <SCORE.INTRA>  (39) 
6.22535

>  <SCORE.INTRA.DIHEDRAL>  (39) 
-0.606802

>  <SCORE.INTRA.DIHEDRAL.0>  (39) 
3.78927

>  <SCORE.INTRA.POLAR>  (39) 
0

>  <SCORE.INTRA.POLAR.0>  (39) 
0

>  <SCORE.INTRA.REPUL>  (39) 
0

>  <SCORE.INTRA.REPUL.0>  (39) 
0

>  <SCORE.INTRA.VDW>  (39) 
6.52875

>  <SCORE.INTRA.VDW.0>  (39) 
1.02728

>  <SCORE.INTRA.norm>  (39) 
0.282971

>  <SCORE.RESTR>  (39) 
1.00562

>  <SCORE.RESTR.CAVITY>  (39) 
1.00562

>  <SCORE.RESTR.norm>  (39) 
0.04571

>  <SCORE.SYSTEM>  (39) 
15.7256

>  <SCORE.SYSTEM.CONST>  (39) 
0

>  <SCORE.SYSTEM.DIHEDRAL>  (39) 
6.02508

>  <SCORE.SYSTEM.POLAR>  (39) 
-0.0841674

>  <SCORE.SYSTEM.REPUL>  (39) 
1.27865

>  <SCORE.SYSTEM.VDW>  (39) 
6.60601

>  <SCORE.SYSTEM.norm>  (39) 
0.714801

>  <SCORE.heavy>  (39) 
22

>  <SCORE.norm>  (39) 
1.70534

$$$$
denovo_401
     RDKit          3D

 22 23  0  0  0  0  0  0  0  0999 V2000
  -15.2591   17.4598  -14.2014 C   0  0  0  0  0  0  0  0  0  0  0  0
  -13.8943   17.2532  -14.5403 O   0  0  0  0  0  0  0  0  0  0  0  0
  -13.1722   16.6374  -13.4713 C   0  0  0  0  0  0  0  0  0  0  0  0
  -13.1311   15.1060  -13.6665 C   0  0  2  0  0  0  0  0  0  0  0  0
  -13.7610   14.4218  -12.4582 C   0  0  0  0  0  0  0  0  0  0  0  0
  -14.6404   13.3451  -12.6490 C   0  0  0  0  0  0  0  0  0  0  0  0
  -15.2303   12.7059  -11.5572 C   0  0  0  0  0  0  0  0  0  0  0  0
  -14.9502   13.1347  -10.2619 C   0  0  0  0  0  0  0  0  0  0  0  0
  -14.0803   14.2030  -10.0569 C   0  0  0  0  0  0  0  0  0  0  0  0
  -13.4893   14.8440  -11.1473 C   0  0  0  0  0  0  0  0  0  0  0  0
  -11.7020   14.5749  -13.9464 C   0  0  2  0  0  0  0  0  0  0  0  0
  -11.0406   15.1501  -15.2031 C   0  0  0  0  0  0  0  0  0  0  0  0
  -10.0322   14.0979  -15.6749 C   0  0  0  0  0  0  0  0  0  0  0  0
  -10.2332   12.8677  -14.7859 C   0  0  2  0  0  0  0  0  0  0  0  0
  -10.0976   11.4999  -15.4769 C   0  0  0  0  0  0  0  0  0  0  0  0
   -9.2980   11.4213  -16.8224 C   0  0  0  0  0  0  0  0  0  0  0  0
   -8.9783    9.9487  -17.1508 C   0  0  0  0  0  0  0  0  0  0  0  0
  -10.2498   11.9546  -17.9234 C   0  0  0  0  0  0  0  0  0  0  0  0
   -7.9874   12.2695  -16.7929 C   0  0  1  0  0  0  0  0  0  0  0  0
   -6.9728   11.8682  -15.7217 C   0  0  0  0  0  0  0  0  0  0  0  0
   -7.2990   12.1913  -18.0423 O   0  0  0  0  0  0  0  0  0  0  0  0
  -11.6454   13.0683  -14.2204 C   0  0  0  0  0  0  0  0  0  0  0  0
  1  2  1  0
  2  3  1  0
  4  3  1  1
  4  5  1  0
  5  6  2  0
  6  7  1  0
  7  8  2  0
  8  9  1  0
  9 10  2  0
  4 11  1  0
 11 12  1  6
 12 13  1  0
 13 14  1  0
 14 15  1  6
 15 16  1  0
 16 17  1  0
 16 18  1  0
 16 19  1  0
 19 20  1  1
 19 21  1  0
 14 22  1  0
 10  5  1  0
 22 11  1  0
M  END
>  <CHROM.0>  (40) 
-178.43896303,64.69961441,-64.16185367,-64.65940196,-176.67235596,-145.28107358
-176.19231085,69.43315620,-174.34947098,66.52317833

>  <CHROM.1>  (40) 
94.73904885,-121.47211047,136.71069058,-60.01734206,21.31938667,165.71177234
60.22441229,66.47721936,-11.61216471,13.64558461,-14.46150341,-3.09921200
-0.77285157,2.59958529

>  <Name>  (40) 
denovo_401

>  <RI>  (40) 
-1.5254e+09

>  <Rbt.Current_Directory>  (40) 
/tmp/claude-0/-home-user-Rare-cancers/1af35c7f-7dc4-53ce-91d2-1631a2a10a85/scratchpad/smwork/cross/dock_8XTT-model8

>  <Rbt.Executable>  (40) 
rbdock - v25.07-alpha

>  <Rbt.Library>  (40) 
libRbt.so (25.07, Buildalpha)

>  <Rbt.Parameter_File>  (40) 
/tmp/claude-0/-home-user-Rare-cancers/1af35c7f-7dc4-53ce-91d2-1631a2a10a85/scratchpad/rdroot/share/rDock/data/scripts/dock.prm

>  <Rbt.Receptor>  (40) 
rec.prm

>  <SCORE>  (40) 
111.3170

>  <SCORE.INTER>  (40) 
106.539

>  <SCORE.INTER.CONST>  (40) 
1

>  <SCORE.INTER.POLAR>  (40) 
-0.6924

>  <SCORE.INTER.REPUL>  (40) 
0.0780268

>  <SCORE.INTER.ROT>  (40) 
7

>  <SCORE.INTER.VDW>  (40) 
96.1033

>  <SCORE.INTER.norm>  (40) 
4.8427

>  <SCORE.INTRA>  (40) 
8.0912

>  <SCORE.INTRA.DIHEDRAL>  (40) 
12.931

>  <SCORE.INTRA.DIHEDRAL.0>  (40) 
3.78927

>  <SCORE.INTRA.POLAR>  (40) 
0

>  <SCORE.INTRA.POLAR.0>  (40) 
0

>  <SCORE.INTRA.REPUL>  (40) 
0

>  <SCORE.INTRA.REPUL.0>  (40) 
0

>  <SCORE.INTRA.VDW>  (40) 
1.6257

>  <SCORE.INTRA.VDW.0>  (40) 
1.02728

>  <SCORE.INTRA.norm>  (40) 
0.367782

>  <SCORE.RESTR>  (40) 
0.20319

>  <SCORE.RESTR.CAVITY>  (40) 
0.20319

>  <SCORE.RESTR.norm>  (40) 
0.00923593

>  <SCORE.SYSTEM>  (40) 
-3.51718

>  <SCORE.SYSTEM.CONST>  (40) 
0

>  <SCORE.SYSTEM.DIHEDRAL>  (40) 
3.44652

>  <SCORE.SYSTEM.POLAR>  (40) 
-0.603755

>  <SCORE.SYSTEM.REPUL>  (40) 
0.221789

>  <SCORE.SYSTEM.VDW>  (40) 
-4.29662

>  <SCORE.SYSTEM.norm>  (40) 
-0.159872

>  <SCORE.heavy>  (40) 
22

>  <SCORE.norm>  (40) 
5.05984

$$$$
denovo_401
     RDKit          3D

 22 23  0  0  0  0  0  0  0  0999 V2000
   -7.7408   12.6864  -12.7875 C   0  0  0  0  0  0  0  0  0  0  0  0
   -8.1561   13.1460  -14.0668 O   0  0  0  0  0  0  0  0  0  0  0  0
   -7.7726   12.2397  -15.1035 C   0  0  0  0  0  0  0  0  0  0  0  0
   -9.0250   11.6373  -15.7770 C   0  0  2  0  0  0  0  0  0  0  0  0
   -8.6649   11.1471  -17.1753 C   0  0  0  0  0  0  0  0  0  0  0  0
   -8.5821    9.7696  -17.4292 C   0  0  0  0  0  0  0  0  0  0  0  0
   -8.2515    9.2990  -18.7011 C   0  0  0  0  0  0  0  0  0  0  0  0
   -7.9986   10.1979  -19.7345 C   0  0  0  0  0  0  0  0  0  0  0  0
   -8.0758   11.5683  -19.4972 C   0  0  0  0  0  0  0  0  0  0  0  0
   -8.4059   12.0414  -18.2259 C   0  0  0  0  0  0  0  0  0  0  0  0
  -10.2231   12.6204  -15.8044 C   0  0  2  0  0  0  0  0  0  0  0  0
   -9.8845   14.0274  -16.3077 C   0  0  0  0  0  0  0  0  0  0  0  0
  -10.9059   14.9692  -15.6624 C   0  0  0  0  0  0  0  0  0  0  0  0
  -11.7182   14.1261  -14.6758 C   0  0  2  0  0  0  0  0  0  0  0  0
  -12.1131   14.8144  -13.3578 C   0  0  0  0  0  0  0  0  0  0  0  0
  -13.6368   14.9626  -13.0225 C   0  0  0  0  0  0  0  0  0  0  0  0
  -14.3708   13.6464  -13.3508 C   0  0  0  0  0  0  0  0  0  0  0  0
  -13.7236   15.1821  -11.4906 C   0  0  0  0  0  0  0  0  0  0  0  0
  -14.3033   16.1592  -13.7719 C   0  0  1  0  0  0  0  0  0  0  0  0
  -15.7314   16.4897  -13.3366 C   0  0  0  0  0  0  0  0  0  0  0  0
  -13.5465   17.3581  -13.5968 O   0  0  0  0  0  0  0  0  0  0  0  0
  -10.8142   12.9128  -14.4213 C   0  0  0  0  0  0  0  0  0  0  0  0
  1  2  1  0
  2  3  1  0
  4  3  1  6
  4  5  1  0
  5  6  2  0
  6  7  1  0
  7  8  2  0
  8  9  1  0
  9 10  2  0
  4 11  1  0
 11 12  1  1
 12 13  1  0
 13 14  1  0
 14 15  1  1
 15 16  1  0
 16 17  1  0
 16 18  1  0
 16 19  1  0
 19 20  1  1
 19 21  1  0
 14 22  1  0
 10  5  1  0
 22 11  1  0
M  END
>  <CHROM.0>  (41) 
64.28907949,158.09095191,81.85743746,-63.32295940,29.92375663,86.91673191
-40.72273562,-57.30497057,-71.55622498,-178.65130052

>  <CHROM.1>  (41) 
115.50940020,157.44180051,107.67072187,48.44425370,119.74814144,43.42181839
-171.33455813,-48.60751592,-10.68508314,13.32519690,-15.22037413,-0.74701624
-0.47423415,1.22944079

>  <Name>  (41) 
denovo_401

>  <RI>  (41) 
-1.5254e+09

>  <Rbt.Current_Directory>  (41) 
/tmp/claude-0/-home-user-Rare-cancers/1af35c7f-7dc4-53ce-91d2-1631a2a10a85/scratchpad/smwork/cross/dock_8XTT-model8

>  <Rbt.Executable>  (41) 
rbdock - v25.07-alpha

>  <Rbt.Library>  (41) 
libRbt.so (25.07, Buildalpha)

>  <Rbt.Parameter_File>  (41) 
/tmp/claude-0/-home-user-Rare-cancers/1af35c7f-7dc4-53ce-91d2-1631a2a10a85/scratchpad/rdroot/share/rDock/data/scripts/dock.prm

>  <Rbt.Receptor>  (41) 
rec.prm

>  <SCORE>  (41) 
112.9270

>  <SCORE.INTER>  (41) 
97.6963

>  <SCORE.INTER.CONST>  (41) 
1

>  <SCORE.INTER.POLAR>  (41) 
-0.788553

>  <SCORE.INTER.REPUL>  (41) 
0

>  <SCORE.INTER.ROT>  (41) 
7

>  <SCORE.INTER.VDW>  (41) 
87.9774

>  <SCORE.INTER.norm>  (41) 
4.44074

>  <SCORE.INTRA>  (41) 
10.9719

>  <SCORE.INTRA.DIHEDRAL>  (41) 
15.1797

>  <SCORE.INTRA.DIHEDRAL.0>  (41) 
3.78927

>  <SCORE.INTRA.POLAR>  (41) 
0

>  <SCORE.INTRA.POLAR.0>  (41) 
0

>  <SCORE.INTRA.REPUL>  (41) 
0

>  <SCORE.INTRA.REPUL.0>  (41) 
0

>  <SCORE.INTRA.VDW>  (41) 
3.38207

>  <SCORE.INTRA.VDW.0>  (41) 
1.02728

>  <SCORE.INTRA.norm>  (41) 
0.498724

>  <SCORE.RESTR>  (41) 
0.744915

>  <SCORE.RESTR.CAVITY>  (41) 
0.744915

>  <SCORE.RESTR.norm>  (41) 
0.0338598

>  <SCORE.SYSTEM>  (41) 
3.51405

>  <SCORE.SYSTEM.CONST>  (41) 
0

>  <SCORE.SYSTEM.DIHEDRAL>  (41) 
11.7945

>  <SCORE.SYSTEM.POLAR>  (41) 
-1.18814

>  <SCORE.SYSTEM.REPUL>  (41) 
0.0451928

>  <SCORE.SYSTEM.VDW>  (41) 
1.43053

>  <SCORE.SYSTEM.norm>  (41) 
0.159729

>  <SCORE.heavy>  (41) 
22

>  <SCORE.norm>  (41) 
5.13306

$$$$
denovo_401
     RDKit          3D

 22 23  0  0  0  0  0  0  0  0999 V2000
  -15.4204   17.0879  -13.8855 C   0  0  0  0  0  0  0  0  0  0  0  0
  -14.0978   17.2142  -14.3905 O   0  0  0  0  0  0  0  0  0  0  0  0
  -13.1363   16.6396  -13.5024 C   0  0  0  0  0  0  0  0  0  0  0  0
  -13.0882   15.1070  -13.6860 C   0  0  2  0  0  0  0  0  0  0  0  0
  -13.7208   14.4292  -12.4754 C   0  0  0  0  0  0  0  0  0  0  0  0
  -14.5992   13.3511  -12.6624 C   0  0  0  0  0  0  0  0  0  0  0  0
  -15.1916   12.7177  -11.5685 C   0  0  0  0  0  0  0  0  0  0  0  0
  -14.9149   13.1538  -10.2749 C   0  0  0  0  0  0  0  0  0  0  0  0
  -14.0459   14.2237  -10.0738 C   0  0  0  0  0  0  0  0  0  0  0  0
  -13.4526   14.8589  -11.1662 C   0  0  0  0  0  0  0  0  0  0  0  0
  -11.6558   14.5796  -13.9555 C   0  0  2  0  0  0  0  0  0  0  0  0
  -10.9920   15.1459  -15.2150 C   0  0  0  0  0  0  0  0  0  0  0  0
   -9.9773   14.0938  -15.6731 C   0  0  0  0  0  0  0  0  0  0  0  0
  -10.1763   12.8711  -14.7733 C   0  0  2  0  0  0  0  0  0  0  0  0
  -10.0320   11.4975  -15.4510 C   0  0  0  0  0  0  0  0  0  0  0  0
   -9.1984   11.4041  -16.7748 C   0  0  0  0  0  0  0  0  0  0  0  0
   -8.8621    9.9287  -17.0732 C   0  0  0  0  0  0  0  0  0  0  0  0
  -10.1252   11.9154  -17.9070 C   0  0  0  0  0  0  0  0  0  0  0  0
   -7.8938   12.2605  -16.7250 C   0  0  1  0  0  0  0  0  0  0  0  0
   -6.9268   11.9139  -15.5924 C   0  0  0  0  0  0  0  0  0  0  0  0
   -7.1496   12.1303  -17.9375 O   0  0  0  0  0  0  0  0  0  0  0  0
  -11.5915   13.0708  -14.2152 C   0  0  0  0  0  0  0  0  0  0  0  0
  1  2  1  0
  2  3  1  0
  4  3  1  1
  4  5  1  0
  5  6  2  0
  6  7  1  0
  7  8  2  0
  8  9  1  0
  9 10  2  0
  4 11  1  0
 11 12  1  6
 12 13  1  0
 13 14  1  0
 14 15  1  6
 15 16  1  0
 16 17  1  0
 16 18  1  0
 16 19  1  0
 19 20  1  1
 19 21  1  0
 14 22  1  0
 10  5  1  0
 22 11  1  0
M  END
>  <CHROM.0>  (42) 
-54.41201482,158.54778881,79.13442976,-62.57554197,-176.86865178,-157.45799748
-32.84703461,70.30397477,-70.90026194,-175.33969159

>  <CHROM.1>  (42) 
80.43959098,-108.27841937,136.44940216,-60.13507232,22.74179411,164.86966923
58.14680768,68.16512079,-11.57253040,13.62350575,-14.42145117,-3.09748150
-0.75888713,2.59791908

>  <Name>  (42) 
denovo_401

>  <RI>  (42) 
-1.5254e+09

>  <Rbt.Current_Directory>  (42) 
/tmp/claude-0/-home-user-Rare-cancers/1af35c7f-7dc4-53ce-91d2-1631a2a10a85/scratchpad/smwork/cross/dock_8XTT-model8

>  <Rbt.Executable>  (42) 
rbdock - v25.07-alpha

>  <Rbt.Library>  (42) 
libRbt.so (25.07, Buildalpha)

>  <Rbt.Parameter_File>  (42) 
/tmp/claude-0/-home-user-Rare-cancers/1af35c7f-7dc4-53ce-91d2-1631a2a10a85/scratchpad/rdroot/share/rDock/data/scripts/dock.prm

>  <Rbt.Receptor>  (42) 
rec.prm

>  <SCORE>  (42) 
114.4820

>  <SCORE.INTER>  (42) 
108.16

>  <SCORE.INTER.CONST>  (42) 
1

>  <SCORE.INTER.POLAR>  (42) 
-0.609057

>  <SCORE.INTER.REPUL>  (42) 
0.0160746

>  <SCORE.INTER.ROT>  (42) 
7

>  <SCORE.INTER.VDW>  (42) 
97.7507

>  <SCORE.INTER.norm>  (42) 
4.91638

>  <SCORE.INTRA>  (42) 
6.71686

>  <SCORE.INTRA.DIHEDRAL>  (42) 
9.89173

>  <SCORE.INTRA.DIHEDRAL.0>  (42) 
3.78927

>  <SCORE.INTRA.POLAR>  (42) 
0

>  <SCORE.INTRA.POLAR.0>  (42) 
0

>  <SCORE.INTRA.REPUL>  (42) 
0

>  <SCORE.INTRA.REPUL.0>  (42) 
0

>  <SCORE.INTRA.VDW>  (42) 
1.771

>  <SCORE.INTRA.VDW.0>  (42) 
1.02728

>  <SCORE.INTRA.norm>  (42) 
0.305312

>  <SCORE.RESTR>  (42) 
0.24846

>  <SCORE.RESTR.CAVITY>  (42) 
0.24846

>  <SCORE.RESTR.norm>  (42) 
0.0112937

>  <SCORE.SYSTEM>  (42) 
-0.643387

>  <SCORE.SYSTEM.CONST>  (42) 
0

>  <SCORE.SYSTEM.DIHEDRAL>  (42) 
9.2016

>  <SCORE.SYSTEM.POLAR>  (42) 
-1.24163

>  <SCORE.SYSTEM.REPUL>  (42) 
0.0679424

>  <SCORE.SYSTEM.VDW>  (42) 
-1.36235

>  <SCORE.SYSTEM.norm>  (42) 
-0.0292449

>  <SCORE.heavy>  (42) 
22

>  <SCORE.norm>  (42) 
5.20374

$$$$
denovo_401
     RDKit          3D

 22 23  0  0  0  0  0  0  0  0999 V2000
  -15.1245   17.4739  -14.3296 C   0  0  0  0  0  0  0  0  0  0  0  0
  -14.4278   17.1227  -13.1415 O   0  0  0  0  0  0  0  0  0  0  0  0
  -13.1017   16.6687  -13.4216 C   0  0  0  0  0  0  0  0  0  0  0  0
  -13.0970   15.1415  -13.6510 C   0  0  2  0  0  0  0  0  0  0  0  0
  -13.7393   14.4452  -12.4562 C   0  0  0  0  0  0  0  0  0  0  0  0
  -14.6245   13.3772  -12.6671 C   0  0  0  0  0  0  0  0  0  0  0  0
  -15.2257   12.7273  -11.5878 C   0  0  0  0  0  0  0  0  0  0  0  0
  -14.9512   13.1367  -10.2851 C   0  0  0  0  0  0  0  0  0  0  0  0
  -14.0756   14.1963  -10.0601 C   0  0  0  0  0  0  0  0  0  0  0  0
  -13.4733   14.8480  -11.1379 C   0  0  0  0  0  0  0  0  0  0  0  0
  -11.6815   14.5835  -13.9475 C   0  0  2  0  0  0  0  0  0  0  0  0
  -11.0207   15.1524  -15.2074 C   0  0  0  0  0  0  0  0  0  0  0  0
  -10.0381   14.0829  -15.6945 C   0  0  0  0  0  0  0  0  0  0  0  0
  -10.2551   12.8521  -14.8101 C   0  0  2  0  0  0  0  0  0  0  0  0
  -10.1534   11.4857  -15.5097 C   0  0  0  0  0  0  0  0  0  0  0  0
   -9.4160   11.4090  -16.8905 C   0  0  0  0  0  0  0  0  0  0  0  0
  -10.1599   12.2781  -17.9249 C   0  0  0  0  0  0  0  0  0  0  0  0
   -8.0153   12.0344  -16.6684 C   0  0  0  0  0  0  0  0  0  0  0  0
   -9.2704    9.9450  -17.4133 C   0  0  1  0  0  0  0  0  0  0  0  0
   -8.6761    9.8075  -18.8154 C   0  0  0  0  0  0  0  0  0  0  0  0
   -8.4339    9.1739  -16.5492 O   0  0  0  0  0  0  0  0  0  0  0  0
  -11.6576   13.0777  -14.2301 C   0  0  0  0  0  0  0  0  0  0  0  0
  1  2  1  0
  2  3  1  0
  4  3  1  1
  4  5  1  0
  5  6  2  0
  6  7  1  0
  7  8  2  0
  8  9  1  0
  9 10  2  0
  4 11  1  0
 11 12  1  6
 12 13  1  0
 13 14  1  0
 14 15  1  6
 15 16  1  0
 16 17  1  0
 16 18  1  0
 16 19  1  0
 19 20  1  6
 19 21  1  0
 14 22  1  0
 10  5  1  0
 22 11  1  0
M  END
>  <CHROM.0>  (43) 
62.01459425,64.03835573,84.25032949,-66.18802541,-178.04033994,-145.72909602
42.87794202,-67.32189700,-176.06828299,65.46331664

>  <CHROM.1>  (43) 
-89.59142796,-54.39760669,137.92242808,-61.07357005,19.00010163,-62.14035847
174.57369232,-63.63197901,-11.77909178,13.39307936,-14.47089926,-2.92224051
-0.87594896,2.70666384

>  <Name>  (43) 
denovo_401

>  <RI>  (43) 
-1.5254e+09

>  <Rbt.Current_Directory>  (43) 
/tmp/claude-0/-home-user-Rare-cancers/1af35c7f-7dc4-53ce-91d2-1631a2a10a85/scratchpad/smwork/cross/dock_8XTT-model8

>  <Rbt.Executable>  (43) 
rbdock - v25.07-alpha

>  <Rbt.Library>  (43) 
libRbt.so (25.07, Buildalpha)

>  <Rbt.Parameter_File>  (43) 
/tmp/claude-0/-home-user-Rare-cancers/1af35c7f-7dc4-53ce-91d2-1631a2a10a85/scratchpad/rdroot/share/rDock/data/scripts/dock.prm

>  <Rbt.Receptor>  (43) 
rec.prm

>  <SCORE>  (43) 
116.1340

>  <SCORE.INTER>  (43) 
106

>  <SCORE.INTER.CONST>  (43) 
1

>  <SCORE.INTER.POLAR>  (43) 
0

>  <SCORE.INTER.REPUL>  (43) 
0

>  <SCORE.INTER.ROT>  (43) 
7

>  <SCORE.INTER.VDW>  (43) 
93.5998

>  <SCORE.INTER.norm>  (43) 
4.81817

>  <SCORE.INTRA>  (43) 
10.5975

>  <SCORE.INTRA.DIHEDRAL>  (43) 
6.21952

>  <SCORE.INTRA.DIHEDRAL.0>  (43) 
3.78927

>  <SCORE.INTRA.POLAR>  (43) 
0

>  <SCORE.INTRA.POLAR.0>  (43) 
0

>  <SCORE.INTRA.REPUL>  (43) 
0

>  <SCORE.INTRA.REPUL.0>  (43) 
0

>  <SCORE.INTRA.VDW>  (43) 
7.48778

>  <SCORE.INTRA.VDW.0>  (43) 
1.02728

>  <SCORE.INTRA.norm>  (43) 
0.481706

>  <SCORE.RESTR>  (43) 
0.223993

>  <SCORE.RESTR.CAVITY>  (43) 
0.223993

>  <SCORE.RESTR.norm>  (43) 
0.0101815

>  <SCORE.SYSTEM>  (43) 
-0.687778

>  <SCORE.SYSTEM.CONST>  (43) 
0

>  <SCORE.SYSTEM.DIHEDRAL>  (43) 
6.84341

>  <SCORE.SYSTEM.POLAR>  (43) 
-1.11582

>  <SCORE.SYSTEM.VDW>  (43) 
-0.315695

>  <SCORE.SYSTEM.norm>  (43) 
-0.0312626

>  <SCORE.heavy>  (43) 
22

>  <SCORE.norm>  (43) 
5.2788

$$$$
denovo_401
     RDKit          3D

 22 23  0  0  0  0  0  0  0  0999 V2000
  -15.0295   17.2835  -14.1446 C   0  0  0  0  0  0  0  0  0  0  0  0
  -16.1085   16.5309  -13.6062 O   0  0  0  0  0  0  0  0  0  0  0  0
  -15.8369   16.1000  -12.2705 C   0  0  0  0  0  0  0  0  0  0  0  0
  -15.5008   14.5928  -12.2531 C   0  0  2  0  0  0  0  0  0  0  0  0
  -14.8642   14.2287  -10.9162 C   0  0  0  0  0  0  0  0  0  0  0  0
  -14.6185   12.8823  -10.6070 C   0  0  0  0  0  0  0  0  0  0  0  0
  -14.0391   12.5264   -9.3879 C   0  0  0  0  0  0  0  0  0  0  0  0
  -13.6990   13.5103   -8.4625 C   0  0  0  0  0  0  0  0  0  0  0  0
  -13.9381   14.8510   -8.7549 C   0  0  0  0  0  0  0  0  0  0  0  0
  -14.5178   15.2094   -9.9733 C   0  0  0  0  0  0  0  0  0  0  0  0
  -14.6121   14.1623  -13.4479 C   0  0  2  0  0  0  0  0  0  0  0  0
  -14.4957   12.6474  -13.6453 C   0  0  0  0  0  0  0  0  0  0  0  0
  -13.1547   12.4097  -14.3466 C   0  0  0  0  0  0  0  0  0  0  0  0
  -12.4430   13.7641  -14.4035 C   0  0  2  0  0  0  0  0  0  0  0  0
  -10.9191   13.7408  -14.1938 C   0  0  0  0  0  0  0  0  0  0  0  0
  -10.0138   13.2288  -15.3661 C   0  0  0  0  0  0  0  0  0  0  0  0
  -10.0607   14.2340  -16.5349 C   0  0  0  0  0  0  0  0  0  0  0  0
   -8.5644   13.2103  -14.8173 C   0  0  0  0  0  0  0  0  0  0  0  0
  -10.4169   11.8028  -15.8578 C   0  0  1  0  0  0  0  0  0  0  0  0
   -9.7236   11.3318  -17.1366 C   0  0  0  0  0  0  0  0  0  0  0  0
  -10.1290   10.8183  -14.8634 O   0  0  0  0  0  0  0  0  0  0  0  0
  -13.1437   14.5768  -13.3067 C   0  0  0  0  0  0  0  0  0  0  0  0
  1  2  1  0
  2  3  1  0
  4  3  1  1
  4  5  1  0
  5  6  2  0
  6  7  1  0
  7  8  2  0
  8  9  1  0
  9 10  2  0
  4 11  1  0
 11 12  1  1
 12 13  1  0
 13 14  1  0
 14 15  1  1
 15 16  1  0
 16 17  1  0
 16 18  1  0
 16 19  1  0
 19 20  1  6
 19 21  1  0
 14 22  1  0
 10  5  1  0
 22 11  1  0
M  END
>  <CHROM.0>  (44) 
-53.69800510,63.88658839,179.25530403,-63.31065058,-46.22896633,18.42408977
-179.32962130,176.73681221,-75.73727671,66.33111269

>  <CHROM.1>  (44) 
-105.15817007,165.18015642,172.44966040,-167.65239206,75.11835617,68.53833691
170.81397668,179.12604584,-12.94150349,13.79434652,-13.20827807,2.64914550
-0.70101335,1.98717425

>  <Name>  (44) 
denovo_401

>  <RI>  (44) 
-1.5254e+09

>  <Rbt.Current_Directory>  (44) 
/tmp/claude-0/-home-user-Rare-cancers/1af35c7f-7dc4-53ce-91d2-1631a2a10a85/scratchpad/smwork/cross/dock_8XTT-model8

>  <Rbt.Executable>  (44) 
rbdock - v25.07-alpha

>  <Rbt.Library>  (44) 
libRbt.so (25.07, Buildalpha)

>  <Rbt.Parameter_File>  (44) 
/tmp/claude-0/-home-user-Rare-cancers/1af35c7f-7dc4-53ce-91d2-1631a2a10a85/scratchpad/rdroot/share/rDock/data/scripts/dock.prm

>  <Rbt.Receptor>  (44) 
rec.prm

>  <SCORE>  (44) 
130.6300

>  <SCORE.INTER>  (44) 
127.462

>  <SCORE.INTER.CONST>  (44) 
1

>  <SCORE.INTER.POLAR>  (44) 
-1.74368

>  <SCORE.INTER.REPUL>  (44) 
0

>  <SCORE.INTER.ROT>  (44) 
7

>  <SCORE.INTER.VDW>  (44) 
120.99

>  <SCORE.INTER.norm>  (44) 
5.79372

>  <SCORE.INTRA>  (44) 
6.82278

>  <SCORE.INTRA.DIHEDRAL>  (44) 
6.32101

>  <SCORE.INTRA.DIHEDRAL.0>  (44) 
3.78927

>  <SCORE.INTRA.POLAR>  (44) 
0

>  <SCORE.INTRA.POLAR.0>  (44) 
0

>  <SCORE.INTRA.REPUL>  (44) 
0

>  <SCORE.INTRA.REPUL.0>  (44) 
0

>  <SCORE.INTRA.VDW>  (44) 
3.66227

>  <SCORE.INTRA.VDW.0>  (44) 
1.02728

>  <SCORE.INTRA.norm>  (44) 
0.310126

>  <SCORE.RESTR>  (44) 
0.0236391

>  <SCORE.RESTR.CAVITY>  (44) 
0.0236391

>  <SCORE.RESTR.norm>  (44) 
0.00107451

>  <SCORE.SYSTEM>  (44) 
-3.67861

>  <SCORE.SYSTEM.CONST>  (44) 
0

>  <SCORE.SYSTEM.DIHEDRAL>  (44) 
5.38695

>  <SCORE.SYSTEM.POLAR>  (44) 
-1.11777

>  <SCORE.SYSTEM.VDW>  (44) 
-2.57168

>  <SCORE.SYSTEM.norm>  (44) 
-0.16721

>  <SCORE.heavy>  (44) 
22

>  <SCORE.norm>  (44) 
5.93771

$$$$
denovo_401
     RDKit          3D

 22 23  0  0  0  0  0  0  0  0999 V2000
  -15.6730   17.8588  -14.7144 C   0  0  0  0  0  0  0  0  0  0  0  0
  -14.3080   17.5192  -14.5104 O   0  0  0  0  0  0  0  0  0  0  0  0
  -14.0533   17.1482  -13.1536 C   0  0  0  0  0  0  0  0  0  0  0  0
  -14.7871   15.8327  -12.8126 C   0  0  2  0  0  0  0  0  0  0  0  0
  -14.6654   15.5546  -11.3183 C   0  0  0  0  0  0  0  0  0  0  0  0
  -13.4676   15.0363  -10.8029 C   0  0  0  0  0  0  0  0  0  0  0  0
  -13.3354   14.7719   -9.4386 C   0  0  0  0  0  0  0  0  0  0  0  0
  -14.3977   15.0206   -8.5728 C   0  0  0  0  0  0  0  0  0  0  0  0
  -15.5933   15.5338   -9.0701 C   0  0  0  0  0  0  0  0  0  0  0  0
  -15.7280   15.7988  -10.4341 C   0  0  0  0  0  0  0  0  0  0  0  0
  -14.2941   14.6332  -13.6615 C   0  0  2  0  0  0  0  0  0  0  0  0
  -14.6032   13.2566  -13.0639 C   0  0  0  0  0  0  0  0  0  0  0  0
  -13.5342   12.3044  -13.6088 C   0  0  0  0  0  0  0  0  0  0  0  0
  -12.5324   13.1658  -14.3823 C   0  0  2  0  0  0  0  0  0  0  0  0
  -11.0530   12.7609  -14.2629 C   0  0  0  0  0  0  0  0  0  0  0  0
  -10.1693   12.7780  -15.5571 C   0  0  0  0  0  0  0  0  0  0  0  0
  -10.2709   14.1589  -16.2365 C   0  0  0  0  0  0  0  0  0  0  0  0
   -8.7052   12.5912  -15.0841 C   0  0  0  0  0  0  0  0  0  0  0  0
  -10.5541   11.6470  -16.5624 C   0  0  1  0  0  0  0  0  0  0  0  0
   -9.4636   11.2623  -17.5627 C   0  0  0  0  0  0  0  0  0  0  0  0
  -10.9027   10.4457  -15.8721 O   0  0  0  0  0  0  0  0  0  0  0  0
  -12.7713   14.5738  -13.8215 C   0  0  0  0  0  0  0  0  0  0  0  0
  1  2  1  0
  2  3  1  0
  4  3  1  6
  4  5  1  0
  5  6  2  0
  6  7  1  0
  7  8  2  0
  8  9  1  0
  9 10  2  0
  4 11  1  0
 11 12  1  1
 12 13  1  0
 13 14  1  0
 14 15  1  1
 15 16  1  0
 16 17  1  0
 16 18  1  0
 16 19  1  0
 19 20  1  6
 19 21  1  0
 14 22  1  0
 10  5  1  0
 22 11  1  0
M  END
>  <CHROM.0>  (45) 
68.68611457,70.49419674,117.16849792,-60.24880666,30.43224331,-36.65359784
-38.03119761,179.73766277,-76.52433747,-46.08264245

>  <CHROM.1>  (45) 
66.41596231,-172.19311558,-77.64246899,159.66518954,137.54402363,53.48410491
-158.27653106,-58.88153865,-12.88917849,14.22687894,-13.49776283,2.79677530
-0.88851716,2.04483825

>  <Name>  (45) 
denovo_401

>  <RI>  (45) 
-1.5254e+09

>  <Rbt.Current_Directory>  (45) 
/tmp/claude-0/-home-user-Rare-cancers/1af35c7f-7dc4-53ce-91d2-1631a2a10a85/scratchpad/smwork/cross/dock_8XTT-model8

>  <Rbt.Executable>  (45) 
rbdock - v25.07-alpha

>  <Rbt.Library>  (45) 
libRbt.so (25.07, Buildalpha)

>  <Rbt.Parameter_File>  (45) 
/tmp/claude-0/-home-user-Rare-cancers/1af35c7f-7dc4-53ce-91d2-1631a2a10a85/scratchpad/rdroot/share/rDock/data/scripts/dock.prm

>  <Rbt.Receptor>  (45) 
rec.prm

>  <SCORE>  (45) 
137.8560

>  <SCORE.INTER>  (45) 
125.919

>  <SCORE.INTER.CONST>  (45) 
1

>  <SCORE.INTER.POLAR>  (45) 
-0.299024

>  <SCORE.INTER.REPUL>  (45) 
0.00329362

>  <SCORE.INTER.ROT>  (45) 
7

>  <SCORE.INTER.VDW>  (45) 
114.519

>  <SCORE.INTER.norm>  (45) 
5.72359

>  <SCORE.INTRA>  (45) 
7.92914

>  <SCORE.INTRA.DIHEDRAL>  (45) 
6.20448

>  <SCORE.INTRA.DIHEDRAL.0>  (45) 
3.78927

>  <SCORE.INTRA.POLAR>  (45) 
0

>  <SCORE.INTRA.POLAR.0>  (45) 
0

>  <SCORE.INTRA.REPUL>  (45) 
0

>  <SCORE.INTRA.REPUL.0>  (45) 
0

>  <SCORE.INTRA.VDW>  (45) 
4.8269

>  <SCORE.INTRA.VDW.0>  (45) 
1.02728

>  <SCORE.INTRA.norm>  (45) 
0.360415

>  <SCORE.RESTR>  (45) 
0

>  <SCORE.RESTR.CAVITY>  (45) 
0

>  <SCORE.RESTR.norm>  (45) 
0

>  <SCORE.SYSTEM>  (45) 
4.00765

>  <SCORE.SYSTEM.CONST>  (45) 
0

>  <SCORE.SYSTEM.DIHEDRAL>  (45) 
16.8633

>  <SCORE.SYSTEM.POLAR>  (45) 
-1.73005

>  <SCORE.SYSTEM.VDW>  (45) 
1.45817

>  <SCORE.SYSTEM.norm>  (45) 
0.182166

>  <SCORE.heavy>  (45) 
22

>  <SCORE.norm>  (45) 
6.26617

$$$$
denovo_401
     RDKit          3D

 22 23  0  0  0  0  0  0  0  0999 V2000
  -15.0465   17.8545  -14.2916 C   0  0  0  0  0  0  0  0  0  0  0  0
  -15.5285   16.5415  -14.0383 O   0  0  0  0  0  0  0  0  0  0  0  0
  -15.3968   16.1875  -12.6597 C   0  0  0  0  0  0  0  0  0  0  0  0
  -15.3238   14.6525  -12.5067 C   0  0  2  0  0  0  0  0  0  0  0  0
  -14.7710   14.3040  -11.1290 C   0  0  0  0  0  0  0  0  0  0  0  0
  -14.6221   12.9585  -10.7596 C   0  0  0  0  0  0  0  0  0  0  0  0
  -14.1206   12.6170   -9.5025 C   0  0  0  0  0  0  0  0  0  0  0  0
  -13.7628   13.6145   -8.5987 C   0  0  0  0  0  0  0  0  0  0  0  0
  -13.9062   14.9545   -8.9507 C   0  0  0  0  0  0  0  0  0  0  0  0
  -14.4079   15.2986  -10.2073 C   0  0  0  0  0  0  0  0  0  0  0  0
  -14.5112   13.9745  -13.6393 C   0  0  2  0  0  0  0  0  0  0  0  0
  -14.5349   12.4427  -13.6148 C   0  0  0  0  0  0  0  0  0  0  0  0
  -13.2408   11.9844  -14.2943 C   0  0  0  0  0  0  0  0  0  0  0  0
  -12.4140   13.2454  -14.5595 C   0  0  2  0  0  0  0  0  0  0  0  0
  -10.8927   13.1130  -14.3721 C   0  0  0  0  0  0  0  0  0  0  0  0
   -9.9764   13.1919  -15.6410 C   0  0  0  0  0  0  0  0  0  0  0  0
  -10.3410   14.4420  -16.4675 C   0  0  0  0  0  0  0  0  0  0  0  0
   -8.5288   13.3769  -15.1188 C   0  0  0  0  0  0  0  0  0  0  0  0
  -10.0647   11.9090  -16.5265 C   0  0  1  0  0  0  0  0  0  0  0  0
  -10.1863   10.5919  -15.7594 C   0  0  0  0  0  0  0  0  0  0  0  0
  -11.1939   11.9666  -17.3997 O   0  0  0  0  0  0  0  0  0  0  0  0
  -13.0084   14.2686  -13.5828 C   0  0  0  0  0  0  0  0  0  0  0  0
  1  2  1  0
  2  3  1  0
  4  3  1  6
  4  5  1  0
  5  6  2  0
  6  7  1  0
  7  8  2  0
  8  9  1  0
  9 10  2  0
  4 11  1  0
 11 12  1  1
 12 13  1  0
 13 14  1  0
 14 15  1  1
 15 16  1  0
 16 17  1  0
 16 18  1  0
 16 19  1  0
 19 20  1  1
 19 21  1  0
 14 22  1  0
 10  5  1  0
 22 11  1  0
M  END
>  <CHROM.0>  (46) 
-55.55344503,65.97383978,-177.98519478,-67.97640524,179.67977814,-0.24203051
-62.02516187,-178.00696784,-73.43121938,67.48654072

>  <CHROM.1>  (46) 
-155.27709432,163.03277965,179.60709998,-173.80853450,111.35839452,50.35404090
-37.63742994,88.75790616,-12.94946085,13.80364693,-13.46926694,2.63690816
-0.78676377,2.05451193

>  <Name>  (46) 
denovo_401

>  <RI>  (46) 
-1.5254e+09

>  <Rbt.Current_Directory>  (46) 
/tmp/claude-0/-home-user-Rare-cancers/1af35c7f-7dc4-53ce-91d2-1631a2a10a85/scratchpad/smwork/cross/dock_8XTT-model8

>  <Rbt.Executable>  (46) 
rbdock - v25.07-alpha

>  <Rbt.Library>  (46) 
libRbt.so (25.07, Buildalpha)

>  <Rbt.Parameter_File>  (46) 
/tmp/claude-0/-home-user-Rare-cancers/1af35c7f-7dc4-53ce-91d2-1631a2a10a85/scratchpad/rdroot/share/rDock/data/scripts/dock.prm

>  <Rbt.Receptor>  (46) 
rec.prm

>  <SCORE>  (46) 
144.7710

>  <SCORE.INTER>  (46) 
139.63

>  <SCORE.INTER.CONST>  (46) 
1

>  <SCORE.INTER.POLAR>  (46) 
-1.85981

>  <SCORE.INTER.REPUL>  (46) 
0.0387632

>  <SCORE.INTER.ROT>  (46) 
7

>  <SCORE.INTER.VDW>  (46) 
133.36

>  <SCORE.INTER.norm>  (46) 
6.34682

>  <SCORE.INTRA>  (46) 
8.92262

>  <SCORE.INTRA.DIHEDRAL>  (46) 
12.5858

>  <SCORE.INTRA.DIHEDRAL.0>  (46) 
3.78927

>  <SCORE.INTRA.POLAR>  (46) 
0

>  <SCORE.INTRA.POLAR.0>  (46) 
0

>  <SCORE.INTRA.REPUL>  (46) 
0

>  <SCORE.INTRA.REPUL.0>  (46) 
0

>  <SCORE.INTRA.VDW>  (46) 
2.62972

>  <SCORE.INTRA.VDW.0>  (46) 
1.02728

>  <SCORE.INTRA.norm>  (46) 
0.405574

>  <SCORE.RESTR>  (46) 
0

>  <SCORE.RESTR.CAVITY>  (46) 
0

>  <SCORE.RESTR.norm>  (46) 
0

>  <SCORE.SYSTEM>  (46) 
-3.78162

>  <SCORE.SYSTEM.CONST>  (46) 
0

>  <SCORE.SYSTEM.DIHEDRAL>  (46) 
5.32702

>  <SCORE.SYSTEM.POLAR>  (46) 
-1.0995

>  <SCORE.SYSTEM.VDW>  (46) 
-2.70684

>  <SCORE.SYSTEM.norm>  (46) 
-0.171892

>  <SCORE.heavy>  (46) 
22

>  <SCORE.norm>  (46) 
6.58051

$$$$
denovo_401
     RDKit          3D

 22 23  0  0  0  0  0  0  0  0999 V2000
  -14.7773   17.6954  -14.0316 C   0  0  0  0  0  0  0  0  0  0  0  0
  -13.6313   17.4768  -13.2195 O   0  0  0  0  0  0  0  0  0  0  0  0
  -13.9594   16.7650  -12.0241 C   0  0  0  0  0  0  0  0  0  0  0  0
  -14.4199   15.3309  -12.3653 C   0  0  2  0  0  0  0  0  0  0  0  0
  -14.2531   14.4379  -11.1407 C   0  0  0  0  0  0  0  0  0  0  0  0
  -13.5944   14.9318  -10.0045 C   0  0  0  0  0  0  0  0  0  0  0  0
  -13.4284   14.1306   -8.8735 C   0  0  0  0  0  0  0  0  0  0  0  0
  -13.9170   12.8263   -8.8638 C   0  0  0  0  0  0  0  0  0  0  0  0
  -14.5719   12.3217   -9.9848 C   0  0  0  0  0  0  0  0  0  0  0  0
  -14.7389   13.1210  -11.1171 C   0  0  0  0  0  0  0  0  0  0  0  0
  -13.6948   14.7467  -13.6045 C   0  0  2  0  0  0  0  0  0  0  0  0
  -14.0671   13.2988  -13.9399 C   0  0  0  0  0  0  0  0  0  0  0  0
  -12.8608   12.7068  -14.6753 C   0  0  0  0  0  0  0  0  0  0  0  0
  -11.7512   13.7602  -14.6174 C   0  0  2  0  0  0  0  0  0  0  0  0
  -10.3195   13.2300  -14.4284 C   0  0  0  0  0  0  0  0  0  0  0  0
   -9.5220   12.7703  -15.6968 C   0  0  0  0  0  0  0  0  0  0  0  0
   -8.1446   12.2211  -15.2729 C   0  0  0  0  0  0  0  0  0  0  0  0
  -10.3279   11.5988  -16.3137 C   0  0  0  0  0  0  0  0  0  0  0  0
   -9.3528   13.9133  -16.7469 C   0  0  1  0  0  0  0  0  0  0  0  0
   -9.0133   13.4534  -18.1651 C   0  0  0  0  0  0  0  0  0  0  0  0
  -10.5472   14.6895  -16.8555 O   0  0  0  0  0  0  0  0  0  0  0  0
  -12.1738   14.6532  -13.4434 C   0  0  0  0  0  0  0  0  0  0  0  0
  1  2  1  0
  2  3  1  0
  4  3  1  1
  4  5  1  0
  5  6  2  0
  6  7  1  0
  7  8  2  0
  8  9  1  0
  9 10  2  0
  4 11  1  0
 11 12  1  1
 12 13  1  0
 13 14  1  0
 14 15  1  1
 15 16  1  0
 16 17  1  0
 16 18  1  0
 16 19  1  0
 19 20  1  6
 19 21  1  0
 14 22  1  0
 10  5  1  0
 22 11  1  0
M  END
>  <CHROM.0>  (47) 
-171.17285742,68.70677879,-179.50949842,59.48887517,-60.19611352,-35.27922387
-33.87899592,-59.81930562,-69.03735609,-179.39624852

>  <CHROM.1>  (47) 
66.21701101,158.46643938,-7.82115068,177.04898068,84.64428135,-177.51084071
-160.66669301,99.07366489,-12.35818518,14.13261057,-13.53905704,2.73462610
-0.83601111,2.37026145

>  <Name>  (47) 
denovo_401

>  <RI>  (47) 
-1.5254e+09

>  <Rbt.Current_Directory>  (47) 
/tmp/claude-0/-home-user-Rare-cancers/1af35c7f-7dc4-53ce-91d2-1631a2a10a85/scratchpad/smwork/cross/dock_8XTT-model8

>  <Rbt.Executable>  (47) 
rbdock - v25.07-alpha

>  <Rbt.Library>  (47) 
libRbt.so (25.07, Buildalpha)

>  <Rbt.Parameter_File>  (47) 
/tmp/claude-0/-home-user-Rare-cancers/1af35c7f-7dc4-53ce-91d2-1631a2a10a85/scratchpad/rdroot/share/rDock/data/scripts/dock.prm

>  <Rbt.Receptor>  (47) 
rec.prm

>  <SCORE>  (47) 
146.3120

>  <SCORE.INTER>  (47) 
135.197

>  <SCORE.INTER.CONST>  (47) 
1

>  <SCORE.INTER.POLAR>  (47) 
-0.7629

>  <SCORE.INTER.REPUL>  (47) 
0.00894158

>  <SCORE.INTER.ROT>  (47) 
7

>  <SCORE.INTER.VDW>  (47) 
125.346

>  <SCORE.INTER.norm>  (47) 
6.14532

>  <SCORE.INTRA>  (47) 
10.7157

>  <SCORE.INTRA.DIHEDRAL>  (47) 
7.47798

>  <SCORE.INTRA.DIHEDRAL.0>  (47) 
3.78927

>  <SCORE.INTRA.POLAR>  (47) 
0

>  <SCORE.INTRA.POLAR.0>  (47) 
0

>  <SCORE.INTRA.REPUL>  (47) 
0

>  <SCORE.INTRA.REPUL.0>  (47) 
0

>  <SCORE.INTRA.VDW>  (47) 
6.97674

>  <SCORE.INTRA.VDW.0>  (47) 
1.02728

>  <SCORE.INTRA.norm>  (47) 
0.487079

>  <SCORE.RESTR>  (47) 
0.0966179

>  <SCORE.RESTR.CAVITY>  (47) 
0.0966179

>  <SCORE.RESTR.norm>  (47) 
0.00439172

>  <SCORE.SYSTEM>  (47) 
0.303022

>  <SCORE.SYSTEM.CONST>  (47) 
0

>  <SCORE.SYSTEM.DIHEDRAL>  (47) 
5.11412

>  <SCORE.SYSTEM.POLAR>  (47) 
-0.806653

>  <SCORE.SYSTEM.REPUL>  (47) 
0.0758449

>  <SCORE.SYSTEM.VDW>  (47) 
0.109359

>  <SCORE.SYSTEM.norm>  (47) 
0.0137737

>  <SCORE.heavy>  (47) 
22

>  <SCORE.norm>  (47) 
6.65056

$$$$
denovo_401
     RDKit          3D

 22 23  0  0  0  0  0  0  0  0999 V2000
  -16.0804   17.6388  -14.3492 C   0  0  0  0  0  0  0  0  0  0  0  0
  -15.6451   16.3167  -14.0614 O   0  0  0  0  0  0  0  0  0  0  0  0
  -14.4345   16.3132  -13.3012 C   0  0  0  0  0  0  0  0  0  0  0  0
  -13.8498   14.8854  -13.2340 C   0  0  2  0  0  0  0  0  0  0  0  0
  -13.9819   14.3476  -11.8133 C   0  0  0  0  0  0  0  0  0  0  0  0
  -13.4306   15.0683  -10.7431 C   0  0  0  0  0  0  0  0  0  0  0  0
  -13.5376   14.5931   -9.4349 C   0  0  0  0  0  0  0  0  0  0  0  0
  -14.1953   13.3922   -9.1797 C   0  0  0  0  0  0  0  0  0  0  0  0
  -14.7465   12.6650  -10.2321 C   0  0  0  0  0  0  0  0  0  0  0  0
  -14.6405   13.1381  -11.5413 C   0  0  0  0  0  0  0  0  0  0  0  0
  -12.3872   14.8113  -13.7419 C   0  0  2  0  0  0  0  0  0  0  0  0
  -12.0870   15.6937  -14.9580 C   0  0  0  0  0  0  0  0  0  0  0  0
  -10.9172   15.0286  -15.6901 C   0  0  0  0  0  0  0  0  0  0  0  0
  -10.6596   13.6944  -14.9846 C   0  0  2  0  0  0  0  0  0  0  0  0
  -10.2718   12.5113  -15.8883 C   0  0  0  0  0  0  0  0  0  0  0  0
   -8.9294   12.5971  -16.6924 C   0  0  0  0  0  0  0  0  0  0  0  0
   -8.8830   13.9192  -17.4852 C   0  0  0  0  0  0  0  0  0  0  0  0
   -7.7948   12.6391  -15.6374 C   0  0  0  0  0  0  0  0  0  0  0  0
   -8.7237   11.3808  -17.6496 C   0  0  1  0  0  0  0  0  0  0  0  0
   -8.7760   10.0065  -16.9814 C   0  0  0  0  0  0  0  0  0  0  0  0
   -9.7182   11.3627  -18.6751 O   0  0  0  0  0  0  0  0  0  0  0  0
  -11.9786   13.4242  -14.2488 C   0  0  0  0  0  0  0  0  0  0  0  0
  1  2  1  0
  2  3  1  0
  4  3  1  1
  4  5  1  0
  5  6  2  0
  6  7  1  0
  7  8  2  0
  8  9  1  0
  9 10  2  0
  4 11  1  0
 11 12  1  6
 12 13  1  0
 13 14  1  0
 14 15  1  6
 15 16  1  0
 16 17  1  0
 16 18  1  0
 16 19  1  0
 19 20  1  1
 19 21  1  0
 14 22  1  0
 10  5  1  0
 22 11  1  0
M  END
>  <CHROM.0>  (48) 
-175.71177223,154.89186525,86.70501824,-62.74381624,-175.56981833,91.07941072
-176.30388620,-60.07896903,-70.52280738,70.54168039

>  <CHROM.1>  (48) 
-169.37434402,-110.34509905,-55.96064674,-38.64408619,63.67759815,-52.03869343
-55.93476041,-59.29746346,-12.03979298,13.87937700,-14.23614433,2.75320122
-0.76859237,2.12329758

>  <Name>  (48) 
denovo_401

>  <RI>  (48) 
-1.5254e+09

>  <Rbt.Current_Directory>  (48) 
/tmp/claude-0/-home-user-Rare-cancers/1af35c7f-7dc4-53ce-91d2-1631a2a10a85/scratchpad/smwork/cross/dock_8XTT-model8

>  <Rbt.Executable>  (48) 
rbdock - v25.07-alpha

>  <Rbt.Library>  (48) 
libRbt.so (25.07, Buildalpha)

>  <Rbt.Parameter_File>  (48) 
/tmp/claude-0/-home-user-Rare-cancers/1af35c7f-7dc4-53ce-91d2-1631a2a10a85/scratchpad/rdroot/share/rDock/data/scripts/dock.prm

>  <Rbt.Receptor>  (48) 
rec.prm

>  <SCORE>  (48) 
146.7020

>  <SCORE.INTER>  (48) 
145.993

>  <SCORE.INTER.CONST>  (48) 
1

>  <SCORE.INTER.POLAR>  (48) 
-1.4526

>  <SCORE.INTER.REPUL>  (48) 
0

>  <SCORE.INTER.ROT>  (48) 
7

>  <SCORE.INTER.VDW>  (48) 
138.532

>  <SCORE.INTER.norm>  (48) 
6.63605

>  <SCORE.INTRA>  (48) 
5.66519

>  <SCORE.INTRA.DIHEDRAL>  (48) 
4.5018

>  <SCORE.INTRA.DIHEDRAL.0>  (48) 
3.78927

>  <SCORE.INTRA.POLAR>  (48) 
0

>  <SCORE.INTRA.POLAR.0>  (48) 
0

>  <SCORE.INTRA.REPUL>  (48) 
0

>  <SCORE.INTRA.REPUL.0>  (48) 
0

>  <SCORE.INTRA.VDW>  (48) 
3.41429

>  <SCORE.INTRA.VDW.0>  (48) 
1.02728

>  <SCORE.INTRA.norm>  (48) 
0.257509

>  <SCORE.RESTR>  (48) 
0.0465654

>  <SCORE.RESTR.CAVITY>  (48) 
0.0465654

>  <SCORE.RESTR.norm>  (48) 
0.00211661

>  <SCORE.SYSTEM>  (48) 
-5.00345

>  <SCORE.SYSTEM.CONST>  (48) 
0

>  <SCORE.SYSTEM.DIHEDRAL>  (48) 
8.85397

>  <SCORE.SYSTEM.POLAR>  (48) 
-1.63162

>  <SCORE.SYSTEM.VDW>  (48) 
-3.88293

>  <SCORE.SYSTEM.norm>  (48) 
-0.227429

>  <SCORE.heavy>  (48) 
22

>  <SCORE.norm>  (48) 
6.66825

$$$$
denovo_401
     RDKit          3D

 22 23  0  0  0  0  0  0  0  0999 V2000
  -14.5649   18.2907  -15.2275 C   0  0  0  0  0  0  0  0  0  0  0  0
  -14.9111   16.9916  -14.7661 O   0  0  0  0  0  0  0  0  0  0  0  0
  -14.7924   16.8868  -13.3454 C   0  0  0  0  0  0  0  0  0  0  0  0
  -15.1632   15.4612  -12.8818 C   0  0  2  0  0  0  0  0  0  0  0  0
  -14.8405   15.3079  -11.3995 C   0  0  0  0  0  0  0  0  0  0  0  0
  -15.7979   15.6675  -10.4387 C   0  0  0  0  0  0  0  0  0  0  0  0
  -15.5225   15.5378   -9.0764 C   0  0  0  0  0  0  0  0  0  0  0  0
  -14.2877   15.0486   -8.6569 C   0  0  0  0  0  0  0  0  0  0  0  0
  -13.3269   14.6888   -9.5990 C   0  0  0  0  0  0  0  0  0  0  0  0
  -13.5999   14.8179  -10.9620 C   0  0  0  0  0  0  0  0  0  0  0  0
  -14.4853   14.3578  -13.7337 C   0  0  2  0  0  0  0  0  0  0  0  0
  -14.6476   12.9363  -13.1855 C   0  0  0  0  0  0  0  0  0  0  0  0
  -13.4438   12.1402  -13.6992 C   0  0  0  0  0  0  0  0  0  0  0  0
  -12.5225   13.1417  -14.4009 C   0  0  2  0  0  0  0  0  0  0  0  0
  -11.0113   12.9194  -14.2176 C   0  0  0  0  0  0  0  0  0  0  0  0
  -10.0558   13.2819  -15.4057 C   0  0  0  0  0  0  0  0  0  0  0  0
  -10.4735   14.6368  -16.0128 C   0  0  0  0  0  0  0  0  0  0  0  0
   -8.6447   13.4561  -14.7886 C   0  0  0  0  0  0  0  0  0  0  0  0
  -10.0234   12.1777  -16.5091 C   0  0  1  0  0  0  0  0  0  0  0  0
   -9.6568   10.7759  -16.0209 C   0  0  0  0  0  0  0  0  0  0  0  0
  -11.2949   12.0563  -17.1491 O   0  0  0  0  0  0  0  0  0  0  0  0
  -12.9613   14.4920  -13.8190 C   0  0  0  0  0  0  0  0  0  0  0  0
  1  2  1  0
  2  3  1  0
  4  3  1  6
  4  5  1  0
  5  6  2  0
  6  7  1  0
  7  8  2  0
  8  9  1  0
  9 10  2  0
  4 11  1  0
 11 12  1  1
 12 13  1  0
 13 14  1  0
 14 15  1  1
 15 16  1  0
 16 17  1  0
 16 18  1  0
 16 19  1  0
 19 20  1  1
 19 21  1  0
 14 22  1  0
 10  5  1  0
 22 11  1  0
M  END
>  <CHROM.0>  (49) 
-173.56280690,66.34958995,-60.11659569,-176.70992110,178.37977352,-105.58133021
-58.17387480,-60.40137435,58.66886733,63.96298547

>  <CHROM.1>  (49) 
-179.48496891,171.91552163,87.71600157,171.08087167,146.16850000,43.62382130
-55.50159064,-178.63068648,-12.94981967,14.30746089,-13.54598055,2.71232539
-0.81526755,2.00250623

>  <Name>  (49) 
denovo_401

>  <RI>  (49) 
-1.5254e+09

>  <Rbt.Current_Directory>  (49) 
/tmp/claude-0/-home-user-Rare-cancers/1af35c7f-7dc4-53ce-91d2-1631a2a10a85/scratchpad/smwork/cross/dock_8XTT-model8

>  <Rbt.Executable>  (49) 
rbdock - v25.07-alpha

>  <Rbt.Library>  (49) 
libRbt.so (25.07, Buildalpha)

>  <Rbt.Parameter_File>  (49) 
/tmp/claude-0/-home-user-Rare-cancers/1af35c7f-7dc4-53ce-91d2-1631a2a10a85/scratchpad/rdroot/share/rDock/data/scripts/dock.prm

>  <Rbt.Receptor>  (49) 
rec.prm

>  <SCORE>  (49) 
151.0180

>  <SCORE.INTER>  (49) 
145.585

>  <SCORE.INTER.CONST>  (49) 
1

>  <SCORE.INTER.POLAR>  (49) 
-2.55987

>  <SCORE.INTER.REPUL>  (49) 
0

>  <SCORE.INTER.ROT>  (49) 
7

>  <SCORE.INTER.VDW>  (49) 
141.889

>  <SCORE.INTER.norm>  (49) 
6.61751

>  <SCORE.INTRA>  (49) 
3.79992

>  <SCORE.INTRA.DIHEDRAL>  (49) 
3.17293

>  <SCORE.INTRA.DIHEDRAL.0>  (49) 
3.78927

>  <SCORE.INTRA.POLAR>  (49) 
0

>  <SCORE.INTRA.POLAR.0>  (49) 
0

>  <SCORE.INTRA.REPUL>  (49) 
0

>  <SCORE.INTRA.REPUL.0>  (49) 
0

>  <SCORE.INTRA.VDW>  (49) 
2.21346

>  <SCORE.INTRA.VDW.0>  (49) 
1.02728

>  <SCORE.INTRA.norm>  (49) 
0.172724

>  <SCORE.RESTR>  (49) 
0.115135

>  <SCORE.RESTR.CAVITY>  (49) 
0.115135

>  <SCORE.RESTR.norm>  (49) 
0.00523339

>  <SCORE.SYSTEM>  (49) 
1.5176

>  <SCORE.SYSTEM.CONST>  (49) 
0

>  <SCORE.SYSTEM.DIHEDRAL>  (49) 
3.60633

>  <SCORE.SYSTEM.POLAR>  (49) 
-0.581176

>  <SCORE.SYSTEM.REPUL>  (49) 
0.380726

>  <SCORE.SYSTEM.VDW>  (49) 
-0.213197

>  <SCORE.SYSTEM.norm>  (49) 
0.0689818

>  <SCORE.heavy>  (49) 
22

>  <SCORE.norm>  (49) 
6.86445

$$$$
denovo_401
     RDKit          3D

 22 23  0  0  0  0  0  0  0  0999 V2000
  -17.1143   13.4982  -10.5088 C   0  0  0  0  0  0  0  0  0  0  0  0
  -17.0329   14.0106  -11.8321 O   0  0  0  0  0  0  0  0  0  0  0  0
  -15.8406   14.7738  -12.0304 C   0  0  0  0  0  0  0  0  0  0  0  0
  -14.6255   13.8344  -12.1924 C   0  0  2  0  0  0  0  0  0  0  0  0
  -14.3690   13.1030  -10.8792 C   0  0  0  0  0  0  0  0  0  0  0  0
  -14.6207   11.7255  -10.7900 C   0  0  0  0  0  0  0  0  0  0  0  0
  -14.3953   11.0367   -9.5969 C   0  0  0  0  0  0  0  0  0  0  0  0
  -13.9171   11.7151   -8.4784 C   0  0  0  0  0  0  0  0  0  0  0  0
  -13.6639   13.0828   -8.5515 C   0  0  0  0  0  0  0  0  0  0  0  0
  -13.8887   13.7739   -9.7435 C   0  0  0  0  0  0  0  0  0  0  0  0
  -13.3588   14.5730  -12.6948 C   0  0  2  0  0  0  0  0  0  0  0  0
  -13.6377   15.8503  -13.4938 C   0  0  0  0  0  0  0  0  0  0  0  0
  -12.4363   16.0431  -14.4243 C   0  0  0  0  0  0  0  0  0  0  0  0
  -11.5570   14.7994  -14.2692 C   0  0  2  0  0  0  0  0  0  0  0  0
  -10.8827   14.2793  -15.5505 C   0  0  0  0  0  0  0  0  0  0  0  0
   -9.7947   13.1592  -15.4175 C   0  0  0  0  0  0  0  0  0  0  0  0
   -8.9465   13.4073  -14.1534 C   0  0  0  0  0  0  0  0  0  0  0  0
  -10.5648   11.8294  -15.2158 C   0  0  0  0  0  0  0  0  0  0  0  0
   -8.8779   13.0595  -16.6774 C   0  0  1  0  0  0  0  0  0  0  0  0
   -8.0562   11.7748  -16.7882 C   0  0  0  0  0  0  0  0  0  0  0  0
   -9.6473   13.1445  -17.8781 O   0  0  0  0  0  0  0  0  0  0  0  0
  -12.5198   13.7576  -13.6844 C   0  0  0  0  0  0  0  0  0  0  0  0
  1  2  1  0
  2  3  1  0
  4  3  1  1
  4  5  1  0
  5  6  2  0
  6  7  1  0
  7  8  2  0
  8  9  1  0
  9 10  2  0
  4 11  1  0
 11 12  1  6
 12 13  1  0
 13 14  1  0
 14 15  1  6
 15 16  1  0
 16 17  1  0
 16 18  1  0
 16 19  1  0
 19 20  1  6
 19 21  1  0
 14 22  1  0
 10  5  1  0
 22 11  1  0
M  END
>  <CHROM.0>  (50) 
-57.71743682,67.61667503,100.80350815,-66.04192238,-178.76383486,-32.60010666
-176.66557333,-61.61897766,-73.38275850,83.99808975

>  <CHROM.1>  (50) 
76.44146682,-66.63818659,110.29112830,-25.34076859,170.25151490,-37.67436954
-164.21648593,171.09399984,-12.68486285,13.47091236,-13.04955781,2.53476486
-0.55742747,2.21469199

>  <Name>  (50) 
denovo_401

>  <RI>  (50) 
-1.5254e+09

>  <Rbt.Current_Directory>  (50) 
/tmp/claude-0/-home-user-Rare-cancers/1af35c7f-7dc4-53ce-91d2-1631a2a10a85/scratchpad/smwork/cross/dock_8XTT-model8

>  <Rbt.Executable>  (50) 
rbdock - v25.07-alpha

>  <Rbt.Library>  (50) 
libRbt.so (25.07, Buildalpha)

>  <Rbt.Parameter_File>  (50) 
/tmp/claude-0/-home-user-Rare-cancers/1af35c7f-7dc4-53ce-91d2-1631a2a10a85/scratchpad/rdroot/share/rDock/data/scripts/dock.prm

>  <Rbt.Receptor>  (50) 
rec.prm

>  <SCORE>  (50) 
160.5130

>  <SCORE.INTER>  (50) 
154.901

>  <SCORE.INTER.CONST>  (50) 
1

>  <SCORE.INTER.POLAR>  (50) 
-0.916515

>  <SCORE.INTER.REPUL>  (50) 
0.0277422

>  <SCORE.INTER.ROT>  (50) 
7

>  <SCORE.INTER.VDW>  (50) 
145.479

>  <SCORE.INTER.norm>  (50) 
7.04097

>  <SCORE.INTRA>  (50) 
10.3002

>  <SCORE.INTRA.DIHEDRAL>  (50) 
5.59295

>  <SCORE.INTRA.DIHEDRAL.0>  (50) 
3.78927

>  <SCORE.INTRA.POLAR>  (50) 
0

>  <SCORE.INTRA.POLAR.0>  (50) 
0

>  <SCORE.INTRA.REPUL>  (50) 
0

>  <SCORE.INTRA.REPUL.0>  (50) 
0

>  <SCORE.INTRA.VDW>  (50) 
7.50374

>  <SCORE.INTRA.VDW.0>  (50) 
1.02728

>  <SCORE.INTRA.norm>  (50) 
0.468192

>  <SCORE.RESTR>  (50) 
0.212512

>  <SCORE.RESTR.CAVITY>  (50) 
0.212512

>  <SCORE.RESTR.norm>  (50) 
0.00965964

>  <SCORE.SYSTEM>  (50) 
-4.9011

>  <SCORE.SYSTEM.CONST>  (50) 
0

>  <SCORE.SYSTEM.DIHEDRAL>  (50) 
10.948

>  <SCORE.SYSTEM.POLAR>  (50) 
-1.75444

>  <SCORE.SYSTEM.VDW>  (50) 
-4.41003

>  <SCORE.SYSTEM.norm>  (50) 
-0.222777

>  <SCORE.heavy>  (50) 
22

>  <SCORE.norm>  (50) 
7.29604

$$$$
