denovo_401
     RDKit          3D

 22 23  0  0  0  0  0  0  0  0999 V2000
   11.6140   14.8150    1.5979 C   0  0  0  0  0  0  0  0  0  0  0  0
   10.5843   14.3151    0.7551 O   0  0  0  0  0  0  0  0  0  0  0  0
   10.0259   13.1025    1.2660 C   0  0  0  0  0  0  0  0  0  0  0  0
   11.0414   11.9471    1.1286 C   0  0  2  0  0  0  0  0  0  0  0  0
   11.3740   11.7341   -0.3442 C   0  0  0  0  0  0  0  0  0  0  0  0
   10.3656   11.8665   -1.3108 C   0  0  0  0  0  0  0  0  0  0  0  0
   10.6474   11.6733   -2.6643 C   0  0  0  0  0  0  0  0  0  0  0  0
   11.9390   11.3446   -3.0688 C   0  0  0  0  0  0  0  0  0  0  0  0
   12.9502   11.2085   -2.1205 C   0  0  0  0  0  0  0  0  0  0  0  0
   12.6707   11.4009   -0.7663 C   0  0  0  0  0  0  0  0  0  0  0  0
   10.5559   10.6382    1.8023 C   0  0  2  0  0  0  0  0  0  0  0  0
   10.1292   10.7923    3.2658 C   0  0  0  0  0  0  0  0  0  0  0  0
   10.3373    9.4220    3.9181 C   0  0  0  0  0  0  0  0  0  0  0  0
   11.0269    8.5393    2.8744 C   0  0  2  0  0  0  0  0  0  0  0  0
   12.0936    7.5659    3.4049 C   0  0  0  0  0  0  0  0  0  0  0  0
   12.8828    6.6906    2.3719 C   0  0  0  0  0  0  0  0  0  0  0  0
   14.1305    7.4575    1.8882 C   0  0  0  0  0  0  0  0  0  0  0  0
   13.3687    5.4393    3.1468 C   0  0  0  0  0  0  0  0  0  0  0  0
   12.0043    6.2579    1.1559 C   0  0  1  0  0  0  0  0  0  0  0  0
   12.7100    5.3864    0.1165 C   0  0  0  0  0  0  0  0  0  0  0  0
   10.8623    5.5160    1.5879 O   0  0  0  0  0  0  0  0  0  0  0  0
   11.6363    9.5560    1.9000 C   0  0  0  0  0  0  0  0  0  0  0  0
  1  2  1  0
  2  3  1  0
  4  3  1  6
  4  5  1  0
  5  6  2  0
  6  7  1  0
  7  8  2  0
  8  9  1  0
  9 10  2  0
  4 11  1  0
 11 12  1  1
 12 13  1  0
 13 14  1  0
 14 15  1  1
 15 16  1  0
 16 17  1  0
 16 18  1  0
 16 19  1  0
 19 20  1  6
 19 21  1  0
 14 22  1  0
 10  5  1  0
 22 11  1  0
M  END
>  <CHROM.0>  (1) 
64.86031968,-61.01153660,-71.80777823,65.71147973,-166.36384205,65.85216939
-161.98841189

>  <CHROM.1>  (1) 
-70.68989885,-61.09812475,-37.76713246,-52.94079820,-176.93151315,88.49608778
-179.31234475,179.37791724,11.58789389,9.80124462,1.04577025,2.13835606,1.22522476
-0.87854116

>  <Name>  (1) 
denovo_401

>  <RI>  (1) 
1.02415e+09

>  <Rbt.Current_Directory>  (1) 
/tmp/claude-0/-home-user-Rare-cancers/1af35c7f-7dc4-53ce-91d2-1631a2a10a85/scratchpad/smwork/cross/dock_metad-opened_v2

>  <Rbt.Executable>  (1) 
rbdock - v25.07-alpha

>  <Rbt.Library>  (1) 
libRbt.so (25.07, Buildalpha)

>  <Rbt.Parameter_File>  (1) 
/tmp/claude-0/-home-user-Rare-cancers/1af35c7f-7dc4-53ce-91d2-1631a2a10a85/scratchpad/rdroot/share/rDock/data/scripts/dock.prm

>  <Rbt.Receptor>  (1) 
rec.prm

>  <SCORE>  (1) 
-30.2661

>  <SCORE.INTER>  (1) 
-16.2194

>  <SCORE.INTER.CONST>  (1) 
1

>  <SCORE.INTER.POLAR>  (1) 
-0.785212

>  <SCORE.INTER.REPUL>  (1) 
0

>  <SCORE.INTER.ROT>  (1) 
7

>  <SCORE.INTER.VDW>  (1) 
-25.9496

>  <SCORE.INTER.norm>  (1) 
-0.737243

>  <SCORE.INTRA>  (1) 
3.40496

>  <SCORE.INTRA.DIHEDRAL>  (1) 
0.74531

>  <SCORE.INTRA.DIHEDRAL.0>  (1) 
3.78927

>  <SCORE.INTRA.POLAR>  (1) 
0

>  <SCORE.INTRA.POLAR.0>  (1) 
0

>  <SCORE.INTRA.REPUL>  (1) 
0

>  <SCORE.INTRA.REPUL.0>  (1) 
0

>  <SCORE.INTRA.VDW>  (1) 
3.0323

>  <SCORE.INTRA.VDW.0>  (1) 
1.02728

>  <SCORE.INTRA.norm>  (1) 
0.154771

>  <SCORE.RESTR>  (1) 
0.0368449

>  <SCORE.RESTR.CAVITY>  (1) 
0.0368449

>  <SCORE.RESTR.norm>  (1) 
0.00167477

>  <SCORE.SYSTEM>  (1) 
-17.4886

>  <SCORE.SYSTEM.CONST>  (1) 
0

>  <SCORE.SYSTEM.DIHEDRAL>  (1) 
3.677

>  <SCORE.SYSTEM.POLAR>  (1) 
-6.06587

>  <SCORE.SYSTEM.REPUL>  (1) 
0.000720815

>  <SCORE.SYSTEM.VDW>  (1) 
1.29326

>  <SCORE.SYSTEM.norm>  (1) 
-0.794936

>  <SCORE.heavy>  (1) 
22

>  <SCORE.norm>  (1) 
-1.37573

$$$$
denovo_401
     RDKit          3D

 22 23  0  0  0  0  0  0  0  0999 V2000
   11.6141   14.8684    1.6467 C   0  0  0  0  0  0  0  0  0  0  0  0
   10.6600   14.3535    0.7275 O   0  0  0  0  0  0  0  0  0  0  0  0
   10.0586   13.1497    1.2097 C   0  0  0  0  0  0  0  0  0  0  0  0
   11.0453   11.9690    1.0770 C   0  0  2  0  0  0  0  0  0  0  0  0
   11.3638   11.7349   -0.3956 C   0  0  0  0  0  0  0  0  0  0  0  0
   12.6737   11.4111   -0.7806 C   0  0  0  0  0  0  0  0  0  0  0  0
   12.9880   11.1953   -2.1235 C   0  0  0  0  0  0  0  0  0  0  0  0
   11.9986   11.3011   -3.0981 C   0  0  0  0  0  0  0  0  0  0  0  0
   10.6941   11.6231   -2.7312 C   0  0  0  0  0  0  0  0  0  0  0  0
   10.3774   11.8397   -1.3889 C   0  0  0  0  0  0  0  0  0  0  0  0
   10.5326   10.6783    1.7655 C   0  0  2  0  0  0  0  0  0  0  0  0
   10.0910   10.8620    3.2211 C   0  0  0  0  0  0  0  0  0  0  0  0
   10.2712    9.4995    3.8975 C   0  0  0  0  0  0  0  0  0  0  0  0
   10.9600    8.5903    2.8763 C   0  0  2  0  0  0  0  0  0  0  0  0
   12.0059    7.6101    3.4350 C   0  0  0  0  0  0  0  0  0  0  0  0
   12.6263    6.5490    2.4628 C   0  0  0  0  0  0  0  0  0  0  0  0
   13.4860    5.5505    3.2647 C   0  0  0  0  0  0  0  0  0  0  0  0
   11.4331    5.7656    1.8586 C   0  0  0  0  0  0  0  0  0  0  0  0
   13.4701    7.2002    1.3219 C   0  0  1  0  0  0  0  0  0  0  0  0
   14.6764    8.0174    1.7855 C   0  0  0  0  0  0  0  0  0  0  0  0
   13.9811    6.2062    0.4321 O   0  0  0  0  0  0  0  0  0  0  0  0
   11.5958    9.5822    1.8934 C   0  0  0  0  0  0  0  0  0  0  0  0
  1  2  1  0
  2  3  1  0
  4  3  1  6
  4  5  1  0
  5  6  2  0
  6  7  1  0
  7  8  2  0
  8  9  1  0
  9 10  2  0
  4 11  1  0
 11 12  1  1
 12 13  1  0
 13 14  1  0
 14 15  1  1
 15 16  1  0
 16 17  1  0
 16 18  1  0
 16 19  1  0
 19 20  1  1
 19 21  1  0
 14 22  1  0
 10  5  1  0
 22 11  1  0
M  END
>  <CHROM.0>  (2) 
66.31547768,-58.25132757,-73.30655329,65.46189722,-165.63451800,65.01340666
-162.01825516

>  <CHROM.1>  (2) 
-75.10194739,-63.11826189,140.41005125,-51.72252147,173.34862584,-171.89028386
61.17628264,177.08772693,11.78514173,9.94509992,1.06140577,2.12793402,1.05934212
-0.88095220

>  <Name>  (2) 
denovo_401

>  <RI>  (2) 
1.02415e+09

>  <Rbt.Current_Directory>  (2) 
/tmp/claude-0/-home-user-Rare-cancers/1af35c7f-7dc4-53ce-91d2-1631a2a10a85/scratchpad/smwork/cross/dock_metad-opened_v2

>  <Rbt.Executable>  (2) 
rbdock - v25.07-alpha

>  <Rbt.Library>  (2) 
libRbt.so (25.07, Buildalpha)

>  <Rbt.Parameter_File>  (2) 
/tmp/claude-0/-home-user-Rare-cancers/1af35c7f-7dc4-53ce-91d2-1631a2a10a85/scratchpad/rdroot/share/rDock/data/scripts/dock.prm

>  <Rbt.Receptor>  (2) 
rec.prm

>  <SCORE>  (2) 
-28.4405

>  <SCORE.INTER>  (2) 
-12.3918

>  <SCORE.INTER.CONST>  (2) 
1

>  <SCORE.INTER.POLAR>  (2) 
0

>  <SCORE.INTER.REPUL>  (2) 
0

>  <SCORE.INTER.ROT>  (2) 
7

>  <SCORE.INTER.VDW>  (2) 
-24.7918

>  <SCORE.INTER.norm>  (2) 
-0.563264

>  <SCORE.INTRA>  (2) 
1.46285

>  <SCORE.INTRA.DIHEDRAL>  (2) 
-1.00586

>  <SCORE.INTRA.DIHEDRAL.0>  (2) 
3.78927

>  <SCORE.INTRA.POLAR>  (2) 
0

>  <SCORE.INTRA.POLAR.0>  (2) 
0

>  <SCORE.INTRA.REPUL>  (2) 
0

>  <SCORE.INTRA.REPUL.0>  (2) 
0

>  <SCORE.INTRA.VDW>  (2) 
1.96578

>  <SCORE.INTRA.VDW.0>  (2) 
1.02728

>  <SCORE.INTRA.norm>  (2) 
0.066493

>  <SCORE.RESTR>  (2) 
0.042845

>  <SCORE.RESTR.CAVITY>  (2) 
0.042845

>  <SCORE.RESTR.norm>  (2) 
0.0019475

>  <SCORE.SYSTEM>  (2) 
-17.5544

>  <SCORE.SYSTEM.CONST>  (2) 
0

>  <SCORE.SYSTEM.DIHEDRAL>  (2) 
3.96194

>  <SCORE.SYSTEM.POLAR>  (2) 
-6.13129

>  <SCORE.SYSTEM.REPUL>  (2) 
0.00366576

>  <SCORE.SYSTEM.VDW>  (2) 
1.29265

>  <SCORE.SYSTEM.norm>  (2) 
-0.797929

>  <SCORE.heavy>  (2) 
22

>  <SCORE.norm>  (2) 
-1.29275

$$$$
denovo_401
     RDKit          3D

 22 23  0  0  0  0  0  0  0  0999 V2000
   16.5017    9.7544    3.1522 C   0  0  0  0  0  0  0  0  0  0  0  0
   15.2277    9.2144    3.4770 O   0  0  0  0  0  0  0  0  0  0  0  0
   14.7976    8.2562    2.5074 C   0  0  0  0  0  0  0  0  0  0  0  0
   13.3606    7.7858    2.8218 C   0  0  2  0  0  0  0  0  0  0  0  0
   12.8846    6.8370    1.7272 C   0  0  0  0  0  0  0  0  0  0  0  0
   11.6434    6.1952    1.8548 C   0  0  0  0  0  0  0  0  0  0  0  0
   11.1894    5.3207    0.8660 C   0  0  0  0  0  0  0  0  0  0  0  0
   11.9696    5.0756   -0.2615 C   0  0  0  0  0  0  0  0  0  0  0  0
   13.2046    5.7044   -0.4014 C   0  0  0  0  0  0  0  0  0  0  0  0
   13.6609    6.5792    0.5863 C   0  0  0  0  0  0  0  0  0  0  0  0
   12.3751    8.9643    3.0282 C   0  0  2  0  0  0  0  0  0  0  0  0
   10.9996    8.5606    3.5694 C   0  0  0  0  0  0  0  0  0  0  0  0
   10.0188    9.6339    3.0871 C   0  0  0  0  0  0  0  0  0  0  0  0
   10.8022   10.5533    2.1462 C   0  0  2  0  0  0  0  0  0  0  0  0
   10.0402   11.0763    0.9164 C   0  0  0  0  0  0  0  0  0  0  0  0
   10.6814   12.2370    0.0811 C   0  0  0  0  0  0  0  0  0  0  0  0
   11.8592   11.6888   -0.7502 C   0  0  0  0  0  0  0  0  0  0  0  0
    9.5874   12.7142   -0.9078 C   0  0  0  0  0  0  0  0  0  0  0  0
   11.1524   13.4294    0.9723 C   0  0  1  0  0  0  0  0  0  0  0  0
   12.3190   13.1226    1.9118 C   0  0  0  0  0  0  0  0  0  0  0  0
   11.5684   14.5353    0.1692 O   0  0  0  0  0  0  0  0  0  0  0  0
   12.0037    9.6933    1.7325 C   0  0  0  0  0  0  0  0  0  0  0  0
  1  2  1  0
  2  3  1  0
  4  3  1  6
  4  5  1  0
  5  6  2  0
  6  7  1  0
  7  8  2  0
  8  9  1  0
  9 10  2  0
  4 11  1  0
 11 12  1  6
 12 13  1  0
 13 14  1  0
 14 15  1  6
 15 16  1  0
 16 17  1  0
 16 18  1  0
 16 19  1  0
 19 20  1  1
 19 21  1  0
 14 22  1  0
 10  5  1  0
 22 11  1  0
M  END
>  <CHROM.0>  (3) 
66.53782762,-60.18516557,-70.16577978,64.94752762,-167.02133629,66.98738318
-163.74695750

>  <CHROM.1>  (3) 
-174.92524302,176.22488657,174.87643468,-170.27899882,167.84592278,74.01685940
66.81163822,-62.16656539,12.20232506,9.53408125,1.47067531,-1.19992649,-0.56808906
0.04349349

>  <Name>  (3) 
denovo_401

>  <RI>  (3) 
1.02415e+09

>  <Rbt.Current_Directory>  (3) 
/tmp/claude-0/-home-user-Rare-cancers/1af35c7f-7dc4-53ce-91d2-1631a2a10a85/scratchpad/smwork/cross/dock_metad-opened_v2

>  <Rbt.Executable>  (3) 
rbdock - v25.07-alpha

>  <Rbt.Library>  (3) 
libRbt.so (25.07, Buildalpha)

>  <Rbt.Parameter_File>  (3) 
/tmp/claude-0/-home-user-Rare-cancers/1af35c7f-7dc4-53ce-91d2-1631a2a10a85/scratchpad/rdroot/share/rDock/data/scripts/dock.prm

>  <Rbt.Receptor>  (3) 
rec.prm

>  <SCORE>  (3) 
-25.8842

>  <SCORE.INTER>  (3) 
-12.837

>  <SCORE.INTER.CONST>  (3) 
1

>  <SCORE.INTER.POLAR>  (3) 
0

>  <SCORE.INTER.REPUL>  (3) 
0

>  <SCORE.INTER.ROT>  (3) 
7

>  <SCORE.INTER.VDW>  (3) 
-25.237

>  <SCORE.INTER.norm>  (3) 
-0.583499

>  <SCORE.INTRA>  (3) 
3.2763

>  <SCORE.INTRA.DIHEDRAL>  (3) 
-0.831023

>  <SCORE.INTRA.DIHEDRAL.0>  (3) 
3.78927

>  <SCORE.INTRA.POLAR>  (3) 
0

>  <SCORE.INTRA.POLAR.0>  (3) 
0

>  <SCORE.INTRA.REPUL>  (3) 
0

>  <SCORE.INTRA.REPUL.0>  (3) 
0

>  <SCORE.INTRA.VDW>  (3) 
3.69181

>  <SCORE.INTRA.VDW.0>  (3) 
1.02728

>  <SCORE.INTRA.norm>  (3) 
0.148923

>  <SCORE.RESTR>  (3) 
1.10384

>  <SCORE.RESTR.CAVITY>  (3) 
1.10384

>  <SCORE.RESTR.norm>  (3) 
0.0501743

>  <SCORE.SYSTEM>  (3) 
-17.4273

>  <SCORE.SYSTEM.CONST>  (3) 
0

>  <SCORE.SYSTEM.DIHEDRAL>  (3) 
3.29308

>  <SCORE.SYSTEM.POLAR>  (3) 
-5.96938

>  <SCORE.SYSTEM.REPUL>  (3) 
0.00132837

>  <SCORE.SYSTEM.VDW>  (3) 
1.21538

>  <SCORE.SYSTEM.norm>  (3) 
-0.792152

>  <SCORE.heavy>  (3) 
22

>  <SCORE.norm>  (3) 
-1.17655

$$$$
denovo_401
     RDKit          3D

 22 23  0  0  0  0  0  0  0  0999 V2000
   11.6010   14.8485    1.5376 C   0  0  0  0  0  0  0  0  0  0  0  0
   10.5173   14.3379    0.7726 O   0  0  0  0  0  0  0  0  0  0  0  0
    9.9730   13.1513    1.3549 C   0  0  0  0  0  0  0  0  0  0  0  0
   10.9908   11.9937    1.2594 C   0  0  2  0  0  0  0  0  0  0  0  0
   11.3500   11.7511   -0.2025 C   0  0  0  0  0  0  0  0  0  0  0  0
   10.3420   11.7699   -1.1784 C   0  0  0  0  0  0  0  0  0  0  0  0
   10.6482   11.5477   -2.5221 C   0  0  0  0  0  0  0  0  0  0  0  0
   11.9641   11.3029   -2.9074 C   0  0  0  0  0  0  0  0  0  0  0  0
   12.9752   11.2798   -1.9496 C   0  0  0  0  0  0  0  0  0  0  0  0
   12.6714   11.5015   -0.6052 C   0  0  0  0  0  0  0  0  0  0  0  0
   10.4932   10.6986    1.9506 C   0  0  2  0  0  0  0  0  0  0  0  0
   10.1889   10.8474    3.4448 C   0  0  0  0  0  0  0  0  0  0  0  0
   10.3773    9.4571    4.0598 C   0  0  0  0  0  0  0  0  0  0  0  0
   10.9389    8.5603    2.9533 C   0  0  2  0  0  0  0  0  0  0  0  0
   11.9928    7.5262    3.3856 C   0  0  0  0  0  0  0  0  0  0  0  0
   12.5577    6.5421    2.3047 C   0  0  0  0  0  0  0  0  0  0  0  0
   13.6301    7.2595    1.4597 C   0  0  0  0  0  0  0  0  0  0  0  0
   13.2571    5.3989    3.0834 C   0  0  0  0  0  0  0  0  0  0  0  0
   11.4413    5.9558    1.3839 C   0  0  1  0  0  0  0  0  0  0  0  0
   11.9401    5.1900    0.1580 C   0  0  0  0  0  0  0  0  0  0  0  0
   10.6057    5.0498    2.1062 O   0  0  0  0  0  0  0  0  0  0  0  0
   11.5219    9.5629    1.9488 C   0  0  0  0  0  0  0  0  0  0  0  0
  1  2  1  0
  2  3  1  0
  4  3  1  6
  4  5  1  0
  5  6  2  0
  6  7  1  0
  7  8  2  0
  8  9  1  0
  9 10  2  0
  4 11  1  0
 11 12  1  1
 12 13  1  0
 13 14  1  0
 14 15  1  1
 15 16  1  0
 16 17  1  0
 16 18  1  0
 16 19  1  0
 19 20  1  6
 19 21  1  0
 14 22  1  0
 10  5  1  0
 22 11  1  0
M  END
>  <CHROM.0>  (4) 
-50.07673519,-58.67758222,-75.57601576,67.00245781,-164.34238865,179.06708332
-161.52290942

>  <CHROM.1>  (4) 
-67.92088618,-58.37929865,-42.27089725,-59.46844338,177.49887255,79.55988695
169.54973284,-72.32816850,11.45153441,9.74302163,1.13460787,1.99139804,1.26150303
-0.71732151

>  <Name>  (4) 
denovo_401

>  <RI>  (4) 
1.02415e+09

>  <Rbt.Current_Directory>  (4) 
/tmp/claude-0/-home-user-Rare-cancers/1af35c7f-7dc4-53ce-91d2-1631a2a10a85/scratchpad/smwork/cross/dock_metad-opened_v2

>  <Rbt.Executable>  (4) 
rbdock - v25.07-alpha

>  <Rbt.Library>  (4) 
libRbt.so (25.07, Buildalpha)

>  <Rbt.Parameter_File>  (4) 
/tmp/claude-0/-home-user-Rare-cancers/1af35c7f-7dc4-53ce-91d2-1631a2a10a85/scratchpad/rdroot/share/rDock/data/scripts/dock.prm

>  <Rbt.Receptor>  (4) 
rec.prm

>  <SCORE>  (4) 
-25.7375

>  <SCORE.INTER>  (4) 
-18.1673

>  <SCORE.INTER.CONST>  (4) 
1

>  <SCORE.INTER.POLAR>  (4) 
-1.9867

>  <SCORE.INTER.REPUL>  (4) 
0

>  <SCORE.INTER.ROT>  (4) 
7

>  <SCORE.INTER.VDW>  (4) 
-23.8125

>  <SCORE.INTER.norm>  (4) 
-0.825785

>  <SCORE.INTRA>  (4) 
4.28441

>  <SCORE.INTRA.DIHEDRAL>  (4) 
0.143466

>  <SCORE.INTRA.DIHEDRAL.0>  (4) 
3.78927

>  <SCORE.INTRA.POLAR>  (4) 
0

>  <SCORE.INTRA.POLAR.0>  (4) 
0

>  <SCORE.INTRA.REPUL>  (4) 
0

>  <SCORE.INTRA.REPUL.0>  (4) 
0

>  <SCORE.INTRA.VDW>  (4) 
4.21268

>  <SCORE.INTRA.VDW.0>  (4) 
1.02728

>  <SCORE.INTRA.norm>  (4) 
0.194746

>  <SCORE.RESTR>  (4) 
0.0716983

>  <SCORE.RESTR.CAVITY>  (4) 
0.0716983

>  <SCORE.RESTR.norm>  (4) 
0.00325901

>  <SCORE.SYSTEM>  (4) 
-11.9263

>  <SCORE.SYSTEM.CONST>  (4) 
0

>  <SCORE.SYSTEM.DIHEDRAL>  (4) 
4.73836

>  <SCORE.SYSTEM.POLAR>  (4) 
-4.60252

>  <SCORE.SYSTEM.REPUL>  (4) 
0.0695483

>  <SCORE.SYSTEM.VDW>  (4) 
1.00532

>  <SCORE.SYSTEM.norm>  (4) 
-0.542105

>  <SCORE.heavy>  (4) 
22

>  <SCORE.norm>  (4) 
-1.16989

$$$$
denovo_401
     RDKit          3D

 22 23  0  0  0  0  0  0  0  0999 V2000
    9.1984   13.9315   -1.2168 C   0  0  0  0  0  0  0  0  0  0  0  0
   10.5660   13.5560   -1.3118 O   0  0  0  0  0  0  0  0  0  0  0  0
   11.1179   13.2434   -0.0308 C   0  0  0  0  0  0  0  0  0  0  0  0
   12.0757   12.0370   -0.1416 C   0  0  2  0  0  0  0  0  0  0  0  0
   12.2502   11.6586   -1.6083 C   0  0  0  0  0  0  0  0  0  0  0  0
   11.1247   11.3369   -2.3820 C   0  0  0  0  0  0  0  0  0  0  0  0
   11.2618   10.9852   -3.7259 C   0  0  0  0  0  0  0  0  0  0  0  0
   12.5242   10.9493   -4.3132 C   0  0  0  0  0  0  0  0  0  0  0  0
   13.6509   11.2648   -3.5574 C   0  0  0  0  0  0  0  0  0  0  0  0
   13.5164   11.6165   -2.2131 C   0  0  0  0  0  0  0  0  0  0  0  0
   11.6181   10.8271    0.7126 C   0  0  2  0  0  0  0  0  0  0  0  0
   11.6262   11.0724    2.2250 C   0  0  0  0  0  0  0  0  0  0  0  0
   11.8161    9.7004    2.8794 C   0  0  0  0  0  0  0  0  0  0  0  0
   12.0738    8.7050    1.7449 C   0  0  2  0  0  0  0  0  0  0  0  0
   13.1029    7.5982    2.0322 C   0  0  0  0  0  0  0  0  0  0  0  0
   12.5782    6.1933    2.4874 C   0  0  0  0  0  0  0  0  0  0  0  0
   13.6625    5.1267    2.2318 C   0  0  0  0  0  0  0  0  0  0  0  0
   12.3609    6.2880    4.0191 C   0  0  0  0  0  0  0  0  0  0  0  0
   11.2438    5.7931    1.7825 C   0  0  1  0  0  0  0  0  0  0  0  0
   11.3849    5.3202    0.3353 C   0  0  0  0  0  0  0  0  0  0  0  0
   10.5915    4.7340    2.4853 O   0  0  0  0  0  0  0  0  0  0  0  0
   12.5292    9.6015    0.5860 C   0  0  0  0  0  0  0  0  0  0  0  0
  1  2  1  0
  2  3  1  0
  4  3  1  6
  4  5  1  0
  5  6  2  0
  6  7  1  0
  7  8  2  0
  8  9  1  0
  9 10  2  0
  4 11  1  0
 11 12  1  1
 12 13  1  0
 13 14  1  0
 14 15  1  1
 15 16  1  0
 16 17  1  0
 16 18  1  0
 16 19  1  0
 19 20  1  6
 19 21  1  0
 14 22  1  0
 10  5  1  0
 22 11  1  0
M  END
>  <CHROM.0>  (5) 
72.15050673,-60.31539760,-75.59896098,66.22612668,-53.29044460,-178.26408246
-161.02772119

>  <CHROM.1>  (5) 
141.26095809,6.28076968,-57.13953724,-64.99365936,97.36585159,159.68243363
76.61047947,-62.74322657,11.86720395,9.55080235,0.20691888,1.81430259,1.25810880
-0.83477529

>  <Name>  (5) 
denovo_401

>  <RI>  (5) 
1.02415e+09

>  <Rbt.Current_Directory>  (5) 
/tmp/claude-0/-home-user-Rare-cancers/1af35c7f-7dc4-53ce-91d2-1631a2a10a85/scratchpad/smwork/cross/dock_metad-opened_v2

>  <Rbt.Executable>  (5) 
rbdock - v25.07-alpha

>  <Rbt.Library>  (5) 
libRbt.so (25.07, Buildalpha)

>  <Rbt.Parameter_File>  (5) 
/tmp/claude-0/-home-user-Rare-cancers/1af35c7f-7dc4-53ce-91d2-1631a2a10a85/scratchpad/rdroot/share/rDock/data/scripts/dock.prm

>  <Rbt.Receptor>  (5) 
rec.prm

>  <SCORE>  (5) 
-23.3761

>  <SCORE.INTER>  (5) 
-17.2039

>  <SCORE.INTER.CONST>  (5) 
1

>  <SCORE.INTER.POLAR>  (5) 
-3.16564

>  <SCORE.INTER.REPUL>  (5) 
0

>  <SCORE.INTER.ROT>  (5) 
7

>  <SCORE.INTER.VDW>  (5) 
-18.8407

>  <SCORE.INTER.norm>  (5) 
-0.781995

>  <SCORE.INTRA>  (5) 
11.0448

>  <SCORE.INTRA.DIHEDRAL>  (5) 
14.981

>  <SCORE.INTRA.DIHEDRAL.0>  (5) 
3.78927

>  <SCORE.INTRA.POLAR>  (5) 
0

>  <SCORE.INTRA.POLAR.0>  (5) 
0

>  <SCORE.INTRA.REPUL>  (5) 
0

>  <SCORE.INTRA.REPUL.0>  (5) 
0

>  <SCORE.INTRA.VDW>  (5) 
3.55432

>  <SCORE.INTRA.VDW.0>  (5) 
1.02728

>  <SCORE.INTRA.norm>  (5) 
0.502037

>  <SCORE.RESTR>  (5) 
0.0306739

>  <SCORE.RESTR.CAVITY>  (5) 
0.0306739

>  <SCORE.RESTR.norm>  (5) 
0.00139427

>  <SCORE.SYSTEM>  (5) 
-17.2477

>  <SCORE.SYSTEM.CONST>  (5) 
0

>  <SCORE.SYSTEM.DIHEDRAL>  (5) 
4.13105

>  <SCORE.SYSTEM.POLAR>  (5) 
-4.59365

>  <SCORE.SYSTEM.REPUL>  (5) 
0.0259751

>  <SCORE.SYSTEM.VDW>  (5) 
-3.8247

>  <SCORE.SYSTEM.norm>  (5) 
-0.783987

>  <SCORE.heavy>  (5) 
22

>  <SCORE.norm>  (5) 
-1.06255

$$$$
denovo_401
     RDKit          3D

 22 23  0  0  0  0  0  0  0  0999 V2000
   11.5867   14.5513    1.7490 C   0  0  0  0  0  0  0  0  0  0  0  0
   10.6206   13.5848    2.1399 O   0  0  0  0  0  0  0  0  0  0  0  0
   10.2612   12.7281    1.0535 C   0  0  0  0  0  0  0  0  0  0  0  0
   11.3764   11.6903    0.7999 C   0  0  2  0  0  0  0  0  0  0  0  0
   11.6016   11.5416   -0.7009 C   0  0  0  0  0  0  0  0  0  0  0  0
   10.5183   11.6736   -1.5829 C   0  0  0  0  0  0  0  0  0  0  0  0
   10.7014   11.5387   -2.9602 C   0  0  0  0  0  0  0  0  0  0  0  0
   11.9680   11.2693   -3.4733 C   0  0  0  0  0  0  0  0  0  0  0  0
   13.0527   11.1343   -2.6099 C   0  0  0  0  0  0  0  0  0  0  0  0
   12.8720   11.2685   -1.2321 C   0  0  0  0  0  0  0  0  0  0  0  0
   11.0902   10.3247    1.4752 C   0  0  2  0  0  0  0  0  0  0  0  0
   10.7962   10.4030    2.9769 C   0  0  0  0  0  0  0  0  0  0  0  0
   11.2009    9.0467    3.5628 C   0  0  0  0  0  0  0  0  0  0  0  0
   11.8680    8.2610    2.4306 C   0  0  2  0  0  0  0  0  0  0  0  0
   13.0720    7.3887    2.8259 C   0  0  0  0  0  0  0  0  0  0  0  0
   13.1714    5.9426    2.2302 C   0  0  0  0  0  0  0  0  0  0  0  0
   13.2004    6.0168    0.6899 C   0  0  0  0  0  0  0  0  0  0  0  0
   14.5339    5.3732    2.7011 C   0  0  0  0  0  0  0  0  0  0  0  0
   12.0107    5.0144    2.7088 C   0  0  1  0  0  0  0  0  0  0  0  0
   11.8624    4.8818    4.2249 C   0  0  0  0  0  0  0  0  0  0  0  0
   10.7500    5.4807    2.2249 O   0  0  0  0  0  0  0  0  0  0  0  0
   12.2760    9.3550    1.4351 C   0  0  0  0  0  0  0  0  0  0  0  0
  1  2  1  0
  2  3  1  0
  4  3  1  6
  4  5  1  0
  5  6  2  0
  6  7  1  0
  7  8  2  0
  8  9  1  0
  9 10  2  0
  4 11  1  0
 11 12  1  1
 12 13  1  0
 13 14  1  0
 14 15  1  1
 15 16  1  0
 16 17  1  0
 16 18  1  0
 16 19  1  0
 19 20  1  1
 19 21  1  0
 14 22  1  0
 10  5  1  0
 22 11  1  0
M  END
>  <CHROM.0>  (6) 
167.27555765,50.90934905,-179.50154975,66.03364931,-57.36172947,66.19150759
-163.13724517

>  <CHROM.1>  (6) 
76.27396615,-137.67032993,-33.49172703,-53.74414816,136.47049704,58.81179276
-55.91447333,64.90388149,11.82640132,9.42659570,1.11239764,2.07557802,1.24134430
-0.94198766

>  <Name>  (6) 
denovo_401

>  <RI>  (6) 
1.02415e+09

>  <Rbt.Current_Directory>  (6) 
/tmp/claude-0/-home-user-Rare-cancers/1af35c7f-7dc4-53ce-91d2-1631a2a10a85/scratchpad/smwork/cross/dock_metad-opened_v2

>  <Rbt.Executable>  (6) 
rbdock - v25.07-alpha

>  <Rbt.Library>  (6) 
libRbt.so (25.07, Buildalpha)

>  <Rbt.Parameter_File>  (6) 
/tmp/claude-0/-home-user-Rare-cancers/1af35c7f-7dc4-53ce-91d2-1631a2a10a85/scratchpad/rdroot/share/rDock/data/scripts/dock.prm

>  <Rbt.Receptor>  (6) 
rec.prm

>  <SCORE>  (6) 
-22.8483

>  <SCORE.INTER>  (6) 
-17.0626

>  <SCORE.INTER.CONST>  (6) 
1

>  <SCORE.INTER.POLAR>  (6) 
-1.76924

>  <SCORE.INTER.REPUL>  (6) 
0

>  <SCORE.INTER.ROT>  (6) 
7

>  <SCORE.INTER.VDW>  (6) 
-23.4472

>  <SCORE.INTER.norm>  (6) 
-0.775572

>  <SCORE.INTRA>  (6) 
5.23534

>  <SCORE.INTRA.DIHEDRAL>  (6) 
8.31482

>  <SCORE.INTRA.DIHEDRAL.0>  (6) 
3.78927

>  <SCORE.INTRA.POLAR>  (6) 
0

>  <SCORE.INTRA.POLAR.0>  (6) 
0

>  <SCORE.INTRA.REPUL>  (6) 
0

>  <SCORE.INTRA.REPUL.0>  (6) 
0

>  <SCORE.INTRA.VDW>  (6) 
1.07793

>  <SCORE.INTRA.VDW.0>  (6) 
1.02728

>  <SCORE.INTRA.norm>  (6) 
0.23797

>  <SCORE.RESTR>  (6) 
0.00703344

>  <SCORE.RESTR.CAVITY>  (6) 
0.00703344

>  <SCORE.RESTR.norm>  (6) 
0.000319702

>  <SCORE.SYSTEM>  (6) 
-11.0281

>  <SCORE.SYSTEM.CONST>  (6) 
0

>  <SCORE.SYSTEM.DIHEDRAL>  (6) 
3.12776

>  <SCORE.SYSTEM.POLAR>  (6) 
-3.2969

>  <SCORE.SYSTEM.REPUL>  (6) 
0.113307

>  <SCORE.SYSTEM.VDW>  (6) 
-1.94907

>  <SCORE.SYSTEM.norm>  (6) 
-0.501279

>  <SCORE.heavy>  (6) 
22

>  <SCORE.norm>  (6) 
-1.03856

$$$$
denovo_401
     RDKit          3D

 22 23  0  0  0  0  0  0  0  0999 V2000
   11.3262   15.0866    1.6407 C   0  0  0  0  0  0  0  0  0  0  0  0
   11.7359   13.7363    1.4696 O   0  0  0  0  0  0  0  0  0  0  0  0
   11.5807   13.3050    0.1156 C   0  0  0  0  0  0  0  0  0  0  0  0
   12.3082   11.9605   -0.1037 C   0  0  2  0  0  0  0  0  0  0  0  0
   12.3425   11.6375   -1.5935 C   0  0  0  0  0  0  0  0  0  0  0  0
   11.1407   11.4367   -2.2892 C   0  0  0  0  0  0  0  0  0  0  0  0
   11.1490   11.1373   -3.6526 C   0  0  0  0  0  0  0  0  0  0  0  0
   12.3574   11.0337   -4.3375 C   0  0  0  0  0  0  0  0  0  0  0  0
   13.5586   11.2291   -3.6600 C   0  0  0  0  0  0  0  0  0  0  0  0
   13.5528   11.5283   -2.2964 C   0  0  0  0  0  0  0  0  0  0  0  0
   11.6903   10.8024    0.7205 C   0  0  2  0  0  0  0  0  0  0  0  0
   11.3610   11.1566    2.1744 C   0  0  0  0  0  0  0  0  0  0  0  0
   11.4208    9.8421    2.9586 C   0  0  0  0  0  0  0  0  0  0  0  0
   11.9362    8.7755    1.9886 C   0  0  2  0  0  0  0  0  0  0  0  0
   12.8918    7.7243    2.5790 C   0  0  0  0  0  0  0  0  0  0  0  0
   13.1071    6.3872    1.7904 C   0  0  0  0  0  0  0  0  0  0  0  0
   11.7413    5.7380    1.4871 C   0  0  0  0  0  0  0  0  0  0  0  0
   13.7531    6.7816    0.4379 C   0  0  0  0  0  0  0  0  0  0  0  0
   14.0303    5.3833    2.5505 C   0  0  1  0  0  0  0  0  0  0  0  0
   13.5313    4.9518    3.9299 C   0  0  0  0  0  0  0  0  0  0  0  0
   14.2088    4.1820    1.7982 O   0  0  0  0  0  0  0  0  0  0  0  0
   12.6236    9.5992    0.8917 C   0  0  0  0  0  0  0  0  0  0  0  0
  1  2  1  0
  2  3  1  0
  4  3  1  6
  4  5  1  0
  5  6  2  0
  6  7  1  0
  7  8  2  0
  8  9  1  0
  9 10  2  0
  4 11  1  0
 11 12  1  1
 12 13  1  0
 13 14  1  0
 14 15  1  1
 15 16  1  0
 16 17  1  0
 16 18  1  0
 16 19  1  0
 19 20  1  1
 19 21  1  0
 14 22  1  0
 10  5  1  0
 22 11  1  0
M  END
>  <CHROM.0>  (7) 
74.27820769,-59.53448070,-72.51439569,65.01625750,-57.68426169,68.58108742
-162.03525010

>  <CHROM.1>  (7) 
167.76583842,-170.16781245,-62.82324242,-44.37216907,161.70504173,-53.07673909
59.56798518,174.83910868,12.43853259,9.63959560,0.48506028,2.27637857,1.28619828
-1.14930912

>  <Name>  (7) 
denovo_401

>  <RI>  (7) 
1.02415e+09

>  <Rbt.Current_Directory>  (7) 
/tmp/claude-0/-home-user-Rare-cancers/1af35c7f-7dc4-53ce-91d2-1631a2a10a85/scratchpad/smwork/cross/dock_metad-opened_v2

>  <Rbt.Executable>  (7) 
rbdock - v25.07-alpha

>  <Rbt.Library>  (7) 
libRbt.so (25.07, Buildalpha)

>  <Rbt.Parameter_File>  (7) 
/tmp/claude-0/-home-user-Rare-cancers/1af35c7f-7dc4-53ce-91d2-1631a2a10a85/scratchpad/rdroot/share/rDock/data/scripts/dock.prm

>  <Rbt.Receptor>  (7) 
rec.prm

>  <SCORE>  (7) 
-22.5939

>  <SCORE.INTER>  (7) 
-6.80479

>  <SCORE.INTER.CONST>  (7) 
1

>  <SCORE.INTER.POLAR>  (7) 
-0.328512

>  <SCORE.INTER.REPUL>  (7) 
0

>  <SCORE.INTER.ROT>  (7) 
7

>  <SCORE.INTER.VDW>  (7) 
-18.0878

>  <SCORE.INTER.norm>  (7) 
-0.309309

>  <SCORE.INTRA>  (7) 
3.61081

>  <SCORE.INTRA.DIHEDRAL>  (7) 
0.873044

>  <SCORE.INTRA.DIHEDRAL.0>  (7) 
3.78927

>  <SCORE.INTRA.POLAR>  (7) 
0

>  <SCORE.INTRA.POLAR.0>  (7) 
0

>  <SCORE.INTRA.REPUL>  (7) 
0

>  <SCORE.INTRA.REPUL.0>  (7) 
0

>  <SCORE.INTRA.VDW>  (7) 
3.17429

>  <SCORE.INTRA.VDW.0>  (7) 
1.02728

>  <SCORE.INTRA.norm>  (7) 
0.164128

>  <SCORE.RESTR>  (7) 
0.029466

>  <SCORE.RESTR.CAVITY>  (7) 
0.029466

>  <SCORE.RESTR.norm>  (7) 
0.00133936

>  <SCORE.SYSTEM>  (7) 
-19.4294

>  <SCORE.SYSTEM.CONST>  (7) 
0

>  <SCORE.SYSTEM.DIHEDRAL>  (7) 
3.9333

>  <SCORE.SYSTEM.POLAR>  (7) 
-5.31454

>  <SCORE.SYSTEM.VDW>  (7) 
-3.32663

>  <SCORE.SYSTEM.norm>  (7) 
-0.883155

>  <SCORE.heavy>  (7) 
22

>  <SCORE.norm>  (7) 
-1.027

$$$$
denovo_401
     RDKit          3D

 22 23  0  0  0  0  0  0  0  0999 V2000
   16.4330    9.6617    3.2964 C   0  0  0  0  0  0  0  0  0  0  0  0
   15.1357    9.1494    3.5700 O   0  0  0  0  0  0  0  0  0  0  0  0
   14.7298    8.1897    2.5914 C   0  0  0  0  0  0  0  0  0  0  0  0
   13.2764    7.7393    2.8553 C   0  0  2  0  0  0  0  0  0  0  0  0
   12.8312    6.7846    1.7528 C   0  0  0  0  0  0  0  0  0  0  0  0
   11.6199    6.0884    1.8832 C   0  0  0  0  0  0  0  0  0  0  0  0
   11.1945    5.2076    0.8873 C   0  0  0  0  0  0  0  0  0  0  0  0
   11.9739    5.0104   -0.2501 C   0  0  0  0  0  0  0  0  0  0  0  0
   13.1794    5.6935   -0.3929 C   0  0  0  0  0  0  0  0  0  0  0  0
   13.6070    6.5747    0.6018 C   0  0  0  0  0  0  0  0  0  0  0  0
   12.2978    8.9312    3.0118 C   0  0  2  0  0  0  0  0  0  0  0  0
   10.8716    8.5396    3.4121 C   0  0  0  0  0  0  0  0  0  0  0  0
    9.9587    9.6487    2.8800 C   0  0  0  0  0  0  0  0  0  0  0  0
   10.8414   10.5813    2.0461 C   0  0  2  0  0  0  0  0  0  0  0  0
   10.2044   11.1602    0.7710 C   0  0  0  0  0  0  0  0  0  0  0  0
   10.7710   12.5052    0.2001 C   0  0  0  0  0  0  0  0  0  0  0  0
   10.4702   13.6542    1.1841 C   0  0  0  0  0  0  0  0  0  0  0  0
   12.3099   12.3325    0.1323 C   0  0  0  0  0  0  0  0  0  0  0  0
   10.2085   12.8408   -1.2172 C   0  0  1  0  0  0  0  0  0  0  0  0
   10.7063   11.9404   -2.3483 C   0  0  0  0  0  0  0  0  0  0  0  0
    8.7827   12.7519   -1.2360 O   0  0  0  0  0  0  0  0  0  0  0  0
   12.0597    9.7098    1.7137 C   0  0  0  0  0  0  0  0  0  0  0  0
  1  2  1  0
  2  3  1  0
  4  3  1  6
  4  5  1  0
  5  6  2  0
  6  7  1  0
  7  8  2  0
  8  9  1  0
  9 10  2  0
  4 11  1  0
 11 12  1  6
 12 13  1  0
 13 14  1  0
 14 15  1  6
 15 16  1  0
 16 17  1  0
 16 18  1  0
 16 19  1  0
 19 20  1  6
 19 21  1  0
 14 22  1  0
 10  5  1  0
 22 11  1  0
M  END
>  <CHROM.0>  (8) 
68.34954899,-178.08769199,-71.55442566,66.48447171,71.62637153,176.63776929
-163.21662232

>  <CHROM.1>  (8) 
-175.49902120,176.43752685,170.52348533,-174.23781460,155.74160197,-66.71527257
-70.19028248,62.78647941,11.97123741,9.41899027,1.23618505,-0.90513704,-0.72784103
0.11093775

>  <Name>  (8) 
denovo_401

>  <RI>  (8) 
1.02415e+09

>  <Rbt.Current_Directory>  (8) 
/tmp/claude-0/-home-user-Rare-cancers/1af35c7f-7dc4-53ce-91d2-1631a2a10a85/scratchpad/smwork/cross/dock_metad-opened_v2

>  <Rbt.Executable>  (8) 
rbdock - v25.07-alpha

>  <Rbt.Library>  (8) 
libRbt.so (25.07, Buildalpha)

>  <Rbt.Parameter_File>  (8) 
/tmp/claude-0/-home-user-Rare-cancers/1af35c7f-7dc4-53ce-91d2-1631a2a10a85/scratchpad/rdroot/share/rDock/data/scripts/dock.prm

>  <Rbt.Receptor>  (8) 
rec.prm

>  <SCORE>  (8) 
-22.2556

>  <SCORE.INTER>  (8) 
-15.4137

>  <SCORE.INTER.CONST>  (8) 
1

>  <SCORE.INTER.POLAR>  (8) 
-0.735126

>  <SCORE.INTER.REPUL>  (8) 
0

>  <SCORE.INTER.ROT>  (8) 
7

>  <SCORE.INTER.VDW>  (8) 
-25.3143

>  <SCORE.INTER.norm>  (8) 
-0.700624

>  <SCORE.INTRA>  (8) 
4.29766

>  <SCORE.INTRA.DIHEDRAL>  (8) 
0.776115

>  <SCORE.INTRA.DIHEDRAL.0>  (8) 
3.78927

>  <SCORE.INTRA.POLAR>  (8) 
0

>  <SCORE.INTRA.POLAR.0>  (8) 
0

>  <SCORE.INTRA.REPUL>  (8) 
0

>  <SCORE.INTRA.REPUL.0>  (8) 
0

>  <SCORE.INTRA.VDW>  (8) 
3.9096

>  <SCORE.INTRA.VDW.0>  (8) 
1.02728

>  <SCORE.INTRA.norm>  (8) 
0.195348

>  <SCORE.RESTR>  (8) 
1.14375

>  <SCORE.RESTR.CAVITY>  (8) 
1.14375

>  <SCORE.RESTR.norm>  (8) 
0.0519887

>  <SCORE.SYSTEM>  (8) 
-12.2833

>  <SCORE.SYSTEM.CONST>  (8) 
0

>  <SCORE.SYSTEM.DIHEDRAL>  (8) 
3.41542

>  <SCORE.SYSTEM.POLAR>  (8) 
-3.40177

>  <SCORE.SYSTEM.REPUL>  (8) 
0.305657

>  <SCORE.SYSTEM.VDW>  (8) 
-3.95323

>  <SCORE.SYSTEM.norm>  (8) 
-0.55833

>  <SCORE.heavy>  (8) 
22

>  <SCORE.norm>  (8) 
-1.01162

$$$$
denovo_401
     RDKit          3D

 22 23  0  0  0  0  0  0  0  0999 V2000
   11.5081   14.5921    1.6641 C   0  0  0  0  0  0  0  0  0  0  0  0
   10.4528   13.9972    0.9205 O   0  0  0  0  0  0  0  0  0  0  0  0
   10.0434   12.7513    1.4892 C   0  0  0  0  0  0  0  0  0  0  0  0
   11.1443   11.6864    1.2920 C   0  0  2  0  0  0  0  0  0  0  0  0
   11.4530   11.5426   -0.1943 C   0  0  0  0  0  0  0  0  0  0  0  0
   10.4201   11.6742   -1.1348 C   0  0  0  0  0  0  0  0  0  0  0  0
   10.6799   11.5437   -2.5001 C   0  0  0  0  0  0  0  0  0  0  0  0
   11.9738   11.2792   -2.9427 C   0  0  0  0  0  0  0  0  0  0  0  0
   13.0091   11.1446   -2.0207 C   0  0  0  0  0  0  0  0  0  0  0  0
   12.7517   11.2744   -0.6548 C   0  0  0  0  0  0  0  0  0  0  0  0
   10.7838   10.3240    1.9376 C   0  0  2  0  0  0  0  0  0  0  0  0
   10.4414   10.3938    3.4294 C   0  0  0  0  0  0  0  0  0  0  0  0
   10.7743    9.0156    4.0092 C   0  0  0  0  0  0  0  0  0  0  0  0
   11.4500    8.2199    2.8891 C   0  0  2  0  0  0  0  0  0  0  0  0
   12.6060    7.2972    3.3125 C   0  0  0  0  0  0  0  0  0  0  0  0
   12.8005    5.9460    2.5428 C   0  0  0  0  0  0  0  0  0  0  0  0
   14.1265    5.2882    2.9763 C   0  0  0  0  0  0  0  0  0  0  0  0
   11.6436    5.0194    2.9957 C   0  0  0  0  0  0  0  0  0  0  0  0
   12.7639    6.1271    0.9924 C   0  0  1  0  0  0  0  0  0  0  0  0
   13.8491    7.0360    0.4143 C   0  0  0  0  0  0  0  0  0  0  0  0
   12.9013    4.8704    0.3270 O   0  0  0  0  0  0  0  0  0  0  0  0
   11.9329    9.3104    1.9239 C   0  0  0  0  0  0  0  0  0  0  0  0
  1  2  1  0
  2  3  1  0
  4  3  1  6
  4  5  1  0
  5  6  2  0
  6  7  1  0
  7  8  2  0
  8  9  1  0
  9 10  2  0
  4 11  1  0
 11 12  1  1
 12 13  1  0
 13 14  1  0
 14 15  1  1
 15 16  1  0
 16 17  1  0
 16 18  1  0
 16 19  1  0
 19 20  1  6
 19 21  1  0
 14 22  1  0
 10  5  1  0
 22 11  1  0
M  END
>  <CHROM.0>  (9) 
-47.97476565,-59.03401535,-69.34430515,61.82036107,72.20368745,67.59340957
-163.08288333

>  <CHROM.1>  (9) 
-69.75860140,-57.19892775,-35.17877114,-55.32512026,145.71686409,171.38606579
61.09678636,63.54312772,11.80806824,9.50763508,1.11852775,2.20502907,1.17008828
-0.91400161

>  <Name>  (9) 
denovo_401

>  <RI>  (9) 
1.02415e+09

>  <Rbt.Current_Directory>  (9) 
/tmp/claude-0/-home-user-Rare-cancers/1af35c7f-7dc4-53ce-91d2-1631a2a10a85/scratchpad/smwork/cross/dock_metad-opened_v2

>  <Rbt.Executable>  (9) 
rbdock - v25.07-alpha

>  <Rbt.Library>  (9) 
libRbt.so (25.07, Buildalpha)

>  <Rbt.Parameter_File>  (9) 
/tmp/claude-0/-home-user-Rare-cancers/1af35c7f-7dc4-53ce-91d2-1631a2a10a85/scratchpad/rdroot/share/rDock/data/scripts/dock.prm

>  <Rbt.Receptor>  (9) 
rec.prm

>  <SCORE>  (9) 
-21.2256

>  <SCORE.INTER>  (9) 
-8.68984

>  <SCORE.INTER.CONST>  (9) 
1

>  <SCORE.INTER.POLAR>  (9) 
-0.312365

>  <SCORE.INTER.REPUL>  (9) 
0

>  <SCORE.INTER.ROT>  (9) 
7

>  <SCORE.INTER.VDW>  (9) 
-20.0278

>  <SCORE.INTER.norm>  (9) 
-0.394993

>  <SCORE.INTRA>  (9) 
2.84439

>  <SCORE.INTRA.DIHEDRAL>  (9) 
2.38796

>  <SCORE.INTRA.DIHEDRAL.0>  (9) 
3.78927

>  <SCORE.INTRA.POLAR>  (9) 
0

>  <SCORE.INTRA.POLAR.0>  (9) 
0

>  <SCORE.INTRA.REPUL>  (9) 
0

>  <SCORE.INTRA.REPUL.0>  (9) 
0

>  <SCORE.INTRA.VDW>  (9) 
1.65041

>  <SCORE.INTRA.VDW.0>  (9) 
1.02728

>  <SCORE.INTRA.norm>  (9) 
0.129291

>  <SCORE.RESTR>  (9) 
0.038135

>  <SCORE.RESTR.CAVITY>  (9) 
0.038135

>  <SCORE.RESTR.norm>  (9) 
0.00173341

>  <SCORE.SYSTEM>  (9) 
-15.4183

>  <SCORE.SYSTEM.CONST>  (9) 
0

>  <SCORE.SYSTEM.DIHEDRAL>  (9) 
3.64903

>  <SCORE.SYSTEM.POLAR>  (9) 
-4.47848

>  <SCORE.SYSTEM.REPUL>  (9) 
0.319669

>  <SCORE.SYSTEM.VDW>  (9) 
-3.61427

>  <SCORE.SYSTEM.norm>  (9) 
-0.70083

>  <SCORE.heavy>  (9) 
22

>  <SCORE.norm>  (9) 
-0.964799

$$$$
denovo_401
     RDKit          3D

 22 23  0  0  0  0  0  0  0  0999 V2000
    8.7660   14.4403   -1.5917 C   0  0  0  0  0  0  0  0  0  0  0  0
   10.0117   13.9223   -1.1444 O   0  0  0  0  0  0  0  0  0  0  0  0
    9.8926   13.2888    0.1315 C   0  0  0  0  0  0  0  0  0  0  0  0
   10.9719   12.1954    0.2881 C   0  0  2  0  0  0  0  0  0  0  0  0
   11.4360   11.7370   -1.0901 C   0  0  0  0  0  0  0  0  0  0  0  0
   12.7992   11.4980   -1.3208 C   0  0  0  0  0  0  0  0  0  0  0  0
   13.2462   11.0803   -2.5755 C   0  0  0  0  0  0  0  0  0  0  0  0
   12.3377   10.8975   -3.6153 C   0  0  0  0  0  0  0  0  0  0  0  0
   10.9814   11.1322   -3.4017 C   0  0  0  0  0  0  0  0  0  0  0  0
   10.5320   11.5502   -2.1478 C   0  0  0  0  0  0  0  0  0  0  0  0
   10.4976   11.0044    1.1594 C   0  0  2  0  0  0  0  0  0  0  0  0
   10.1309   11.3724    2.6008 C   0  0  0  0  0  0  0  0  0  0  0  0
   10.3480   10.1053    3.4337 C   0  0  0  0  0  0  0  0  0  0  0  0
   10.9851    9.0712    2.5016 C   0  0  2  0  0  0  0  0  0  0  0  0
   12.0600    8.1644    3.1254 C   0  0  0  0  0  0  0  0  0  0  0  0
   12.6838    7.0315    2.2403 C   0  0  0  0  0  0  0  0  0  0  0  0
   13.8348    7.6100    1.3922 C   0  0  0  0  0  0  0  0  0  0  0  0
   13.2942    6.0005    3.2237 C   0  0  0  0  0  0  0  0  0  0  0  0
   11.6287    6.3354    1.3238 C   0  0  1  0  0  0  0  0  0  0  0  0
   12.1865    5.2773    0.3713 C   0  0  0  0  0  0  0  0  0  0  0  0
   10.6265    5.6804    2.1033 O   0  0  0  0  0  0  0  0  0  0  0  0
   11.5678    9.9282    1.3701 C   0  0  0  0  0  0  0  0  0  0  0  0
  1  2  1  0
  2  3  1  0
  4  3  1  6
  4  5  1  0
  5  6  2  0
  6  7  1  0
  7  8  2  0
  8  9  1  0
  9 10  2  0
  4 11  1  0
 11 12  1  1
 12 13  1  0
 13 14  1  0
 14 15  1  1
 15 16  1  0
 16 17  1  0
 16 18  1  0
 16 19  1  0
 19 20  1  6
 19 21  1  0
 14 22  1  0
 10  5  1  0
 22 11  1  0
M  END
>  <CHROM.0>  (10) 
168.36359513,-57.82177604,-178.09924890,64.80467635,73.20378516,67.64667156
-163.42228406

>  <CHROM.1>  (10) 
152.69076218,-22.94538264,138.96331411,-61.21288971,176.39618528,84.27886484
176.42565079,-61.77515301,11.38062494,9.91994871,0.43031634,2.00888081,1.03691385
-0.93224200

>  <Name>  (10) 
denovo_401

>  <RI>  (10) 
1.02415e+09

>  <Rbt.Current_Directory>  (10) 
/tmp/claude-0/-home-user-Rare-cancers/1af35c7f-7dc4-53ce-91d2-1631a2a10a85/scratchpad/smwork/cross/dock_metad-opened_v2

>  <Rbt.Executable>  (10) 
rbdock - v25.07-alpha

>  <Rbt.Library>  (10) 
libRbt.so (25.07, Buildalpha)

>  <Rbt.Parameter_File>  (10) 
/tmp/claude-0/-home-user-Rare-cancers/1af35c7f-7dc4-53ce-91d2-1631a2a10a85/scratchpad/rdroot/share/rDock/data/scripts/dock.prm

>  <Rbt.Receptor>  (10) 
rec.prm

>  <SCORE>  (10) 
-20.9872

>  <SCORE.INTER>  (10) 
-12.0069

>  <SCORE.INTER.CONST>  (10) 
1

>  <SCORE.INTER.POLAR>  (10) 
-1.76369

>  <SCORE.INTER.REPUL>  (10) 
0

>  <SCORE.INTER.ROT>  (10) 
7

>  <SCORE.INTER.VDW>  (10) 
-18.4104

>  <SCORE.INTER.norm>  (10) 
-0.54577

>  <SCORE.INTRA>  (10) 
6.30755

>  <SCORE.INTRA.DIHEDRAL>  (10) 
6.03125

>  <SCORE.INTRA.DIHEDRAL.0>  (10) 
3.78927

>  <SCORE.INTRA.POLAR>  (10) 
0

>  <SCORE.INTRA.POLAR.0>  (10) 
0

>  <SCORE.INTRA.REPUL>  (10) 
0

>  <SCORE.INTRA.REPUL.0>  (10) 
0

>  <SCORE.INTRA.VDW>  (10) 
3.29193

>  <SCORE.INTRA.VDW.0>  (10) 
1.02728

>  <SCORE.INTRA.norm>  (10) 
0.286707

>  <SCORE.RESTR>  (10) 
0.00682795

>  <SCORE.RESTR.CAVITY>  (10) 
0.00682795

>  <SCORE.RESTR.norm>  (10) 
0.000310362

>  <SCORE.SYSTEM>  (10) 
-15.2946

>  <SCORE.SYSTEM.CONST>  (10) 
0

>  <SCORE.SYSTEM.DIHEDRAL>  (10) 
3.38211

>  <SCORE.SYSTEM.POLAR>  (10) 
-4.42806

>  <SCORE.SYSTEM.REPUL>  (10) 
0.297017

>  <SCORE.SYSTEM.VDW>  (10) 
-3.41532

>  <SCORE.SYSTEM.norm>  (10) 
-0.695209

>  <SCORE.heavy>  (10) 
22

>  <SCORE.norm>  (10) 
-0.953962

$$$$
denovo_401
     RDKit          3D

 22 23  0  0  0  0  0  0  0  0999 V2000
   16.3935    9.8367    2.9411 C   0  0  0  0  0  0  0  0  0  0  0  0
   15.2249    9.1833    3.4184 O   0  0  0  0  0  0  0  0  0  0  0  0
   14.8175    8.1264    2.5464 C   0  0  0  0  0  0  0  0  0  0  0  0
   13.3740    7.6877    2.8764 C   0  0  2  0  0  0  0  0  0  0  0  0
   12.8697    6.7404    1.7932 C   0  0  0  0  0  0  0  0  0  0  0  0
   13.6354    6.5381    0.6350 C   0  0  0  0  0  0  0  0  0  0  0  0
   13.1914    5.6773   -0.3703 C   0  0  0  0  0  0  0  0  0  0  0  0
   11.9772    5.0092   -0.2318 C   0  0  0  0  0  0  0  0  0  0  0  0
   11.2055    5.2012    0.9118 C   0  0  0  0  0  0  0  0  0  0  0  0
   11.6472    6.0617    1.9184 C   0  0  0  0  0  0  0  0  0  0  0  0
   12.4144    8.8875    3.0817 C   0  0  2  0  0  0  0  0  0  0  0  0
   11.0066    8.5074    3.5522 C   0  0  0  0  0  0  0  0  0  0  0  0
   10.0776    9.6243    3.0664 C   0  0  0  0  0  0  0  0  0  0  0  0
   10.9254   10.5501    2.1900 C   0  0  2  0  0  0  0  0  0  0  0  0
   10.2306   11.1351    0.9482 C   0  0  0  0  0  0  0  0  0  0  0  0
   10.8083   12.4506    0.3221 C   0  0  0  0  0  0  0  0  0  0  0  0
   10.5215   13.6410    1.2599 C   0  0  0  0  0  0  0  0  0  0  0  0
   12.3451   12.2605    0.2571 C   0  0  0  0  0  0  0  0  0  0  0  0
   10.2444   12.7343   -1.1059 C   0  0  1  0  0  0  0  0  0  0  0  0
   10.7089   11.7682   -2.1962 C   0  0  0  0  0  0  0  0  0  0  0  0
    8.8167   12.6841   -1.1117 O   0  0  0  0  0  0  0  0  0  0  0  0
   12.1184    9.6689    1.7972 C   0  0  0  0  0  0  0  0  0  0  0  0
  1  2  1  0
  2  3  1  0
  4  3  1  6
  4  5  1  0
  5  6  2  0
  6  7  1  0
  7  8  2  0
  8  9  1  0
  9 10  2  0
  4 11  1  0
 11 12  1  6
 12 13  1  0
 13 14  1  0
 14 15  1  6
 15 16  1  0
 16 17  1  0
 16 18  1  0
 16 19  1  0
 19 20  1  6
 19 21  1  0
 14 22  1  0
 10  5  1  0
 22 11  1  0
M  END
>  <CHROM.0>  (11) 
-47.46285788,-175.14324158,-70.83682044,65.82685262,-54.06264700,67.77167644
-161.89738994

>  <CHROM.1>  (11) 
-165.21077262,170.16990113,-7.94964749,-174.00452193,157.71918203,-70.74940188
-69.06538782,64.87971214,12.02078299,9.38696779,1.28675564,-0.93175697,-0.69568476
0.10846011

>  <Name>  (11) 
denovo_401

>  <RI>  (11) 
1.02415e+09

>  <Rbt.Current_Directory>  (11) 
/tmp/claude-0/-home-user-Rare-cancers/1af35c7f-7dc4-53ce-91d2-1631a2a10a85/scratchpad/smwork/cross/dock_metad-opened_v2

>  <Rbt.Executable>  (11) 
rbdock - v25.07-alpha

>  <Rbt.Library>  (11) 
libRbt.so (25.07, Buildalpha)

>  <Rbt.Parameter_File>  (11) 
/tmp/claude-0/-home-user-Rare-cancers/1af35c7f-7dc4-53ce-91d2-1631a2a10a85/scratchpad/rdroot/share/rDock/data/scripts/dock.prm

>  <Rbt.Receptor>  (11) 
rec.prm

>  <SCORE>  (11) 
-19.7384

>  <SCORE.INTER>  (11) 
-14.4954

>  <SCORE.INTER.CONST>  (11) 
1

>  <SCORE.INTER.POLAR>  (11) 
-0.612055

>  <SCORE.INTER.REPUL>  (11) 
0

>  <SCORE.INTER.ROT>  (11) 
7

>  <SCORE.INTER.VDW>  (11) 
-24.8144

>  <SCORE.INTER.norm>  (11) 
-0.658882

>  <SCORE.INTRA>  (11) 
5.71888

>  <SCORE.INTRA.DIHEDRAL>  (11) 
2.05572

>  <SCORE.INTRA.DIHEDRAL.0>  (11) 
3.78927

>  <SCORE.INTRA.POLAR>  (11) 
0

>  <SCORE.INTRA.POLAR.0>  (11) 
0

>  <SCORE.INTRA.REPUL>  (11) 
0

>  <SCORE.INTRA.REPUL.0>  (11) 
0

>  <SCORE.INTRA.VDW>  (11) 
4.69103

>  <SCORE.INTRA.VDW.0>  (11) 
1.02728

>  <SCORE.INTRA.norm>  (11) 
0.259949

>  <SCORE.RESTR>  (11) 
1.07505

>  <SCORE.RESTR.CAVITY>  (11) 
1.07505

>  <SCORE.RESTR.norm>  (11) 
0.0488659

>  <SCORE.SYSTEM>  (11) 
-12.0369

>  <SCORE.SYSTEM.CONST>  (11) 
0

>  <SCORE.SYSTEM.DIHEDRAL>  (11) 
3.7945

>  <SCORE.SYSTEM.POLAR>  (11) 
-3.44309

>  <SCORE.SYSTEM.REPUL>  (11) 
0.00742658

>  <SCORE.SYSTEM.VDW>  (11) 
-2.2648

>  <SCORE.SYSTEM.norm>  (11) 
-0.547133

>  <SCORE.heavy>  (11) 
22

>  <SCORE.norm>  (11) 
-0.8972

$$$$
denovo_401
     RDKit          3D

 22 23  0  0  0  0  0  0  0  0999 V2000
   16.4725    9.8347    2.9453 C   0  0  0  0  0  0  0  0  0  0  0  0
   15.3083    9.1389    3.3707 O   0  0  0  0  0  0  0  0  0  0  0  0
   14.8869    8.1742    2.4037 C   0  0  0  0  0  0  0  0  0  0  0  0
   13.4883    7.6292    2.7669 C   0  0  2  0  0  0  0  0  0  0  0  0
   12.9935    6.7138    1.6523 C   0  0  0  0  0  0  0  0  0  0  0  0
   11.7617    6.0557    1.7886 C   0  0  0  0  0  0  0  0  0  0  0  0
   11.2909    5.2112    0.7818 C   0  0  0  0  0  0  0  0  0  0  0  0
   12.0446    5.0126   -0.3726 C   0  0  0  0  0  0  0  0  0  0  0  0
   13.2700    5.6581   -0.5214 C   0  0  0  0  0  0  0  0  0  0  0  0
   13.7431    6.5030    0.4843 C   0  0  0  0  0  0  0  0  0  0  0  0
   12.4689    8.7540    3.0806 C   0  0  2  0  0  0  0  0  0  0  0  0
   11.1161    8.2628    3.6063 C   0  0  0  0  0  0  0  0  0  0  0  0
   10.0937    9.3380    3.2251 C   0  0  0  0  0  0  0  0  0  0  0  0
   10.8318   10.3551    2.3507 C   0  0  2  0  0  0  0  0  0  0  0  0
   10.0335   10.9491    1.1773 C   0  0  0  0  0  0  0  0  0  0  0  0
   10.6417   12.1696    0.4049 C   0  0  0  0  0  0  0  0  0  0  0  0
   11.7713   11.6839   -0.5260 C   0  0  0  0  0  0  0  0  0  0  0  0
    9.5033   12.7288   -0.4860 C   0  0  0  0  0  0  0  0  0  0  0  0
   11.1672   13.2852    1.3625 C   0  0  1  0  0  0  0  0  0  0  0  0
   11.6548   14.5609    0.6750 C   0  0  0  0  0  0  0  0  0  0  0  0
   10.1512   13.6917    2.2810 O   0  0  0  0  0  0  0  0  0  0  0  0
   12.0534    9.5714    1.8529 C   0  0  0  0  0  0  0  0  0  0  0  0
  1  2  1  0
  2  3  1  0
  4  3  1  6
  4  5  1  0
  5  6  2  0
  6  7  1  0
  7  8  2  0
  8  9  1  0
  9 10  2  0
  4 11  1  0
 11 12  1  6
 12 13  1  0
 13 14  1  0
 14 15  1  6
 15 16  1  0
 16 17  1  0
 16 18  1  0
 16 19  1  0
 19 20  1  6
 19 21  1  0
 14 22  1  0
 10  5  1  0
 22 11  1  0
M  END
>  <CHROM.0>  (12) 
67.39744693,51.64239786,58.20517879,65.53180536,67.35801433,66.66419982,-161.65593713

>  <CHROM.1>  (12) 
-169.41416853,174.14568719,177.36992582,-173.10939163,169.45309980,75.95154871
-174.55600043,-179.31992677,12.13129568,9.46268558,1.58260822,-1.15258018
-0.47994068,0.14326698

>  <Name>  (12) 
denovo_401

>  <RI>  (12) 
1.02415e+09

>  <Rbt.Current_Directory>  (12) 
/tmp/claude-0/-home-user-Rare-cancers/1af35c7f-7dc4-53ce-91d2-1631a2a10a85/scratchpad/smwork/cross/dock_metad-opened_v2

>  <Rbt.Executable>  (12) 
rbdock - v25.07-alpha

>  <Rbt.Library>  (12) 
libRbt.so (25.07, Buildalpha)

>  <Rbt.Parameter_File>  (12) 
/tmp/claude-0/-home-user-Rare-cancers/1af35c7f-7dc4-53ce-91d2-1631a2a10a85/scratchpad/rdroot/share/rDock/data/scripts/dock.prm

>  <Rbt.Receptor>  (12) 
rec.prm

>  <SCORE>  (12) 
-19.5170

>  <SCORE.INTER>  (12) 
-10.6727

>  <SCORE.INTER.CONST>  (12) 
1

>  <SCORE.INTER.POLAR>  (12) 
0

>  <SCORE.INTER.REPUL>  (12) 
0

>  <SCORE.INTER.ROT>  (12) 
7

>  <SCORE.INTER.VDW>  (12) 
-23.0727

>  <SCORE.INTER.norm>  (12) 
-0.485122

>  <SCORE.INTRA>  (12) 
3.37946

>  <SCORE.INTRA.DIHEDRAL>  (12) 
-0.555312

>  <SCORE.INTRA.DIHEDRAL.0>  (12) 
3.78927

>  <SCORE.INTRA.POLAR>  (12) 
0

>  <SCORE.INTRA.POLAR.0>  (12) 
0

>  <SCORE.INTRA.REPUL>  (12) 
0

>  <SCORE.INTRA.REPUL.0>  (12) 
0

>  <SCORE.INTRA.VDW>  (12) 
3.65711

>  <SCORE.INTRA.VDW.0>  (12) 
1.02728

>  <SCORE.INTRA.norm>  (12) 
0.153612

>  <SCORE.RESTR>  (12) 
1.16097

>  <SCORE.RESTR.CAVITY>  (12) 
1.16097

>  <SCORE.RESTR.norm>  (12) 
0.0527714

>  <SCORE.SYSTEM>  (12) 
-13.3847

>  <SCORE.SYSTEM.CONST>  (12) 
0

>  <SCORE.SYSTEM.DIHEDRAL>  (12) 
3.0223

>  <SCORE.SYSTEM.POLAR>  (12) 
-4.08673

>  <SCORE.SYSTEM.REPUL>  (12) 
0.501167

>  <SCORE.SYSTEM.VDW>  (12) 
-3.50684

>  <SCORE.SYSTEM.norm>  (12) 
-0.608397

>  <SCORE.heavy>  (12) 
22

>  <SCORE.norm>  (12) 
-0.887136

$$$$
denovo_401
     RDKit          3D

 22 23  0  0  0  0  0  0  0  0999 V2000
   15.3196    3.3949    2.7405 C   0  0  0  0  0  0  0  0  0  0  0  0
   14.3119    4.3732    2.9592 O   0  0  0  0  0  0  0  0  0  0  0  0
   14.7347    5.6709    2.5344 C   0  0  0  0  0  0  0  0  0  0  0  0
   13.5091    6.5747    2.2772 C   0  0  2  0  0  0  0  0  0  0  0  0
   12.5891    5.9077    1.2605 C   0  0  0  0  0  0  0  0  0  0  0  0
   11.3456    5.4053    1.6727 C   0  0  0  0  0  0  0  0  0  0  0  0
   10.4889    4.7886    0.7592 C   0  0  0  0  0  0  0  0  0  0  0  0
   10.8640    4.6652   -0.5765 C   0  0  0  0  0  0  0  0  0  0  0  0
   12.0960    5.1579   -1.0001 C   0  0  0  0  0  0  0  0  0  0  0  0
   12.9546    5.7748   -0.0884 C   0  0  0  0  0  0  0  0  0  0  0  0
   13.9024    8.0092    1.8409 C   0  0  2  0  0  0  0  0  0  0  0  0
   14.9706    8.6736    2.7156 C   0  0  0  0  0  0  0  0  0  0  0  0
   14.7458   10.1837    2.5916 C   0  0  0  0  0  0  0  0  0  0  0  0
   13.4610   10.3709    1.7802 C   0  0  2  0  0  0  0  0  0  0  0  0
   12.5463   11.5298    2.2130 C   0  0  0  0  0  0  0  0  0  0  0  0
   11.2691   11.8305    1.3560 C   0  0  0  0  0  0  0  0  0  0  0  0
   11.6012   11.6751   -0.1422 C   0  0  0  0  0  0  0  0  0  0  0  0
   10.2329   10.7387    1.7255 C   0  0  0  0  0  0  0  0  0  0  0  0
   10.6760   13.2469    1.6382 C   0  0  1  0  0  0  0  0  0  0  0  0
   11.6033   14.4198    1.3182 C   0  0  0  0  0  0  0  0  0  0  0  0
    9.4847   13.4632    0.8799 O   0  0  0  0  0  0  0  0  0  0  0  0
   12.7520    9.0179    1.9254 C   0  0  0  0  0  0  0  0  0  0  0  0
  1  2  1  0
  2  3  1  0
  4  3  1  6
  4  5  1  0
  5  6  2  0
  6  7  1  0
  7  8  2  0
  8  9  1  0
  9 10  2  0
  4 11  1  0
 11 12  1  1
 12 13  1  0
 13 14  1  0
 14 15  1  1
 15 16  1  0
 16 17  1  0
 16 18  1  0
 16 19  1  0
 19 20  1  6
 19 21  1  0
 14 22  1  0
 10  5  1  0
 22 11  1  0
M  END
>  <CHROM.0>  (13) 
69.10705475,-57.21112520,-71.04481062,66.34274113,-166.18061611,177.61985939
-162.40611084

>  <CHROM.1>  (13) 
158.64098612,-56.12167446,109.95734995,-48.40866967,175.76008472,-39.75435407
61.57255703,-62.31208370,12.51816100,8.48086000,1.49029998,-1.25353527,-0.54604334
0.13401610

>  <Name>  (13) 
denovo_401

>  <RI>  (13) 
1.02415e+09

>  <Rbt.Current_Directory>  (13) 
/tmp/claude-0/-home-user-Rare-cancers/1af35c7f-7dc4-53ce-91d2-1631a2a10a85/scratchpad/smwork/cross/dock_metad-opened_v2

>  <Rbt.Executable>  (13) 
rbdock - v25.07-alpha

>  <Rbt.Library>  (13) 
libRbt.so (25.07, Buildalpha)

>  <Rbt.Parameter_File>  (13) 
/tmp/claude-0/-home-user-Rare-cancers/1af35c7f-7dc4-53ce-91d2-1631a2a10a85/scratchpad/rdroot/share/rDock/data/scripts/dock.prm

>  <Rbt.Receptor>  (13) 
rec.prm

>  <SCORE>  (13) 
-19.0250

>  <SCORE.INTER>  (13) 
-6.64308

>  <SCORE.INTER.CONST>  (13) 
1

>  <SCORE.INTER.POLAR>  (13) 
0

>  <SCORE.INTER.REPUL>  (13) 
0.0119789

>  <SCORE.INTER.ROT>  (13) 
7

>  <SCORE.INTER.VDW>  (13) 
-19.103

>  <SCORE.INTER.norm>  (13) 
-0.301958

>  <SCORE.INTRA>  (13) 
3.05399

>  <SCORE.INTRA.DIHEDRAL>  (13) 
1.34761

>  <SCORE.INTRA.DIHEDRAL.0>  (13) 
3.78927

>  <SCORE.INTRA.POLAR>  (13) 
0

>  <SCORE.INTRA.POLAR.0>  (13) 
0

>  <SCORE.INTRA.REPUL>  (13) 
0

>  <SCORE.INTRA.REPUL.0>  (13) 
0

>  <SCORE.INTRA.VDW>  (13) 
2.38019

>  <SCORE.INTRA.VDW.0>  (13) 
1.02728

>  <SCORE.INTRA.norm>  (13) 
0.138818

>  <SCORE.RESTR>  (13) 
0.0363472

>  <SCORE.RESTR.CAVITY>  (13) 
0.0363472

>  <SCORE.RESTR.norm>  (13) 
0.00165214

>  <SCORE.SYSTEM>  (13) 
-15.4722

>  <SCORE.SYSTEM.CONST>  (13) 
0

>  <SCORE.SYSTEM.DIHEDRAL>  (13) 
3.76755

>  <SCORE.SYSTEM.POLAR>  (13) 
-5.30831

>  <SCORE.SYSTEM.REPUL>  (13) 
0.000856658

>  <SCORE.SYSTEM.VDW>  (13) 
0.687959

>  <SCORE.SYSTEM.norm>  (13) 
-0.703283

>  <SCORE.heavy>  (13) 
22

>  <SCORE.norm>  (13) 
-0.864771

$$$$
denovo_401
     RDKit          3D

 22 23  0  0  0  0  0  0  0  0999 V2000
   15.0984    5.7323    2.6532 C   0  0  0  0  0  0  0  0  0  0  0  0
   15.5084    7.0688    2.9107 O   0  0  0  0  0  0  0  0  0  0  0  0
   14.6753    8.0156    2.2379 C   0  0  0  0  0  0  0  0  0  0  0  0
   13.1909    7.7572    2.5770 C   0  0  2  0  0  0  0  0  0  0  0  0
   12.6001    6.7811    1.5654 C   0  0  0  0  0  0  0  0  0  0  0  0
   13.2690    6.5449    0.3547 C   0  0  0  0  0  0  0  0  0  0  0  0
   12.7447    5.6574   -0.5866 C   0  0  0  0  0  0  0  0  0  0  0  0
   11.5459    4.9959   -0.3310 C   0  0  0  0  0  0  0  0  0  0  0  0
   10.8700    5.2213    0.8659 C   0  0  0  0  0  0  0  0  0  0  0  0
   11.3921    6.1086    1.8087 C   0  0  0  0  0  0  0  0  0  0  0  0
   12.3600    9.0626    2.6675 C   0  0  2  0  0  0  0  0  0  0  0  0
   10.9637    8.8913    3.2745 C   0  0  0  0  0  0  0  0  0  0  0  0
   10.1036   10.0173    2.6924 C   0  0  0  0  0  0  0  0  0  0  0  0
   10.9617   10.7263    1.6411 C   0  0  2  0  0  0  0  0  0  0  0  0
   10.2299   11.2014    0.3740 C   0  0  0  0  0  0  0  0  0  0  0  0
   10.7470   12.4951   -0.3437 C   0  0  0  0  0  0  0  0  0  0  0  0
    9.6571   13.0322   -1.2938 C   0  0  0  0  0  0  0  0  0  0  0  0
   10.9642   13.5507    0.7702 C   0  0  0  0  0  0  0  0  0  0  0  0
   12.0795   12.2584   -1.1223 C   0  0  1  0  0  0  0  0  0  0  0  0
   12.0046   11.2268   -2.2484 C   0  0  0  0  0  0  0  0  0  0  0  0
   12.5438   13.4691   -1.7219 O   0  0  0  0  0  0  0  0  0  0  0  0
   12.0385    9.6861    1.3051 C   0  0  0  0  0  0  0  0  0  0  0  0
  1  2  1  0
  2  3  1  0
  4  3  1  6
  4  5  1  0
  5  6  2  0
  6  7  1  0
  7  8  2  0
  8  9  1  0
  9 10  2  0
  4 11  1  0
 11 12  1  6
 12 13  1  0
 13 14  1  0
 14 15  1  6
 15 16  1  0
 16 17  1  0
 16 18  1  0
 16 19  1  0
 19 20  1  6
 19 21  1  0
 14 22  1  0
 10  5  1  0
 22 11  1  0
M  END
>  <CHROM.0>  (14) 
70.46495908,-57.06547606,-74.19797180,65.27357536,-57.10740972,64.49148332
-162.26777084

>  <CHROM.1>  (14) 
53.17183019,-89.90543827,-16.56125106,-168.16050303,148.30814254,-162.70729638
61.32454007,155.11029047,12.10461442,9.15859144,0.89077987,-0.84975214,-1.08917154
0.31321084

>  <Name>  (14) 
denovo_401

>  <RI>  (14) 
1.02415e+09

>  <Rbt.Current_Directory>  (14) 
/tmp/claude-0/-home-user-Rare-cancers/1af35c7f-7dc4-53ce-91d2-1631a2a10a85/scratchpad/smwork/cross/dock_metad-opened_v2

>  <Rbt.Executable>  (14) 
rbdock - v25.07-alpha

>  <Rbt.Library>  (14) 
libRbt.so (25.07, Buildalpha)

>  <Rbt.Parameter_File>  (14) 
/tmp/claude-0/-home-user-Rare-cancers/1af35c7f-7dc4-53ce-91d2-1631a2a10a85/scratchpad/rdroot/share/rDock/data/scripts/dock.prm

>  <Rbt.Receptor>  (14) 
rec.prm

>  <SCORE>  (14) 
-18.2087

>  <SCORE.INTER>  (14) 
-9.02456

>  <SCORE.INTER.CONST>  (14) 
1

>  <SCORE.INTER.POLAR>  (14) 
-0.818528

>  <SCORE.INTER.REPUL>  (14) 
0

>  <SCORE.INTER.ROT>  (14) 
7

>  <SCORE.INTER.VDW>  (14) 
-18.6416

>  <SCORE.INTER.norm>  (14) 
-0.410207

>  <SCORE.INTRA>  (14) 
10.1819

>  <SCORE.INTRA.DIHEDRAL>  (14) 
7.63306

>  <SCORE.INTRA.DIHEDRAL.0>  (14) 
3.78927

>  <SCORE.INTRA.POLAR>  (14) 
0

>  <SCORE.INTRA.POLAR.0>  (14) 
0

>  <SCORE.INTRA.REPUL>  (14) 
0

>  <SCORE.INTRA.REPUL.0>  (14) 
0

>  <SCORE.INTRA.VDW>  (14) 
6.36542

>  <SCORE.INTRA.VDW.0>  (14) 
1.02728

>  <SCORE.INTRA.norm>  (14) 
0.462816

>  <SCORE.RESTR>  (14) 
0.331859

>  <SCORE.RESTR.CAVITY>  (14) 
0.331859

>  <SCORE.RESTR.norm>  (14) 
0.0150845

>  <SCORE.SYSTEM>  (14) 
-19.698

>  <SCORE.SYSTEM.CONST>  (14) 
0

>  <SCORE.SYSTEM.DIHEDRAL>  (14) 
3.48324

>  <SCORE.SYSTEM.POLAR>  (14) 
-5.41501

>  <SCORE.SYSTEM.VDW>  (14) 
-3.02852

>  <SCORE.SYSTEM.norm>  (14) 
-0.895361

>  <SCORE.heavy>  (14) 
22

>  <SCORE.norm>  (14) 
-0.827668

$$$$
denovo_401
     RDKit          3D

 22 23  0  0  0  0  0  0  0  0999 V2000
   15.4606    3.4463    2.7659 C   0  0  0  0  0  0  0  0  0  0  0  0
   14.2255    4.0545    3.1196 O   0  0  0  0  0  0  0  0  0  0  0  0
   14.2591    5.4701    2.9243 C   0  0  0  0  0  0  0  0  0  0  0  0
   12.8239    6.0263    2.7976 C   0  0  2  0  0  0  0  0  0  0  0  0
   12.2240    5.5883    1.4659 C   0  0  0  0  0  0  0  0  0  0  0  0
   10.8941    5.1438    1.4152 C   0  0  0  0  0  0  0  0  0  0  0  0
   10.3257    4.7358    0.2073 C   0  0  0  0  0  0  0  0  0  0  0  0
   11.0786    4.7656   -0.9642 C   0  0  0  0  0  0  0  0  0  0  0  0
   12.4005    5.2032   -0.9291 C   0  0  0  0  0  0  0  0  0  0  0  0
   12.9712    5.6114    0.2777 C   0  0  0  0  0  0  0  0  0  0  0  0
   12.7583    7.5644    2.9784 C   0  0  2  0  0  0  0  0  0  0  0  0
   11.3526    8.1193    3.2310 C   0  0  0  0  0  0  0  0  0  0  0  0
   11.3669    9.5653    2.7258 C   0  0  0  0  0  0  0  0  0  0  0  0
   12.7220    9.7793    2.0461 C   0  0  2  0  0  0  0  0  0  0  0  0
   12.7169   10.6521    0.7792 C   0  0  0  0  0  0  0  0  0  0  0  0
   11.9792   12.0338    0.8296 C   0  0  0  0  0  0  0  0  0  0  0  0
   12.5609   12.8912    1.9721 C   0  0  0  0  0  0  0  0  0  0  0  0
   12.3034   12.7468   -0.5079 C   0  0  0  0  0  0  0  0  0  0  0  0
   10.4337   11.8841    0.9939 C   0  0  1  0  0  0  0  0  0  0  0  0
    9.6487   13.1960    1.0191 C   0  0  0  0  0  0  0  0  0  0  0  0
    9.8787   11.1087   -0.0699 O   0  0  0  0  0  0  0  0  0  0  0  0
   13.1907    8.3514    1.7367 C   0  0  0  0  0  0  0  0  0  0  0  0
  1  2  1  0
  2  3  1  0
  4  3  1  6
  4  5  1  0
  5  6  2  0
  6  7  1  0
  7  8  2  0
  8  9  1  0
  9 10  2  0
  4 11  1  0
 11 12  1  6
 12 13  1  0
 13 14  1  0
 14 15  1  6
 15 16  1  0
 16 17  1  0
 16 18  1  0
 16 19  1  0
 19 20  1  6
 19 21  1  0
 14 22  1  0
 10  5  1  0
 22 11  1  0
M  END
>  <CHROM.0>  (15) 
67.78716453,52.05697096,56.62489962,65.50852621,-54.57517258,65.00455215
-161.38634705

>  <CHROM.1>  (15) 
158.88472091,-70.86517081,137.56164996,-164.61738706,49.00869589,56.62989020
-178.69920092,174.87213650,12.16569749,8.15435378,1.41272006,-1.20880155
-0.78146668,0.14379402

>  <Name>  (15) 
denovo_401

>  <RI>  (15) 
1.02415e+09

>  <Rbt.Current_Directory>  (15) 
/tmp/claude-0/-home-user-Rare-cancers/1af35c7f-7dc4-53ce-91d2-1631a2a10a85/scratchpad/smwork/cross/dock_metad-opened_v2

>  <Rbt.Executable>  (15) 
rbdock - v25.07-alpha

>  <Rbt.Library>  (15) 
libRbt.so (25.07, Buildalpha)

>  <Rbt.Parameter_File>  (15) 
/tmp/claude-0/-home-user-Rare-cancers/1af35c7f-7dc4-53ce-91d2-1631a2a10a85/scratchpad/rdroot/share/rDock/data/scripts/dock.prm

>  <Rbt.Receptor>  (15) 
rec.prm

>  <SCORE>  (15) 
-17.5788

>  <SCORE.INTER>  (15) 
-5.65094

>  <SCORE.INTER.CONST>  (15) 
1

>  <SCORE.INTER.POLAR>  (15) 
0

>  <SCORE.INTER.REPUL>  (15) 
0.0458772

>  <SCORE.INTER.ROT>  (15) 
7

>  <SCORE.INTER.VDW>  (15) 
-18.2803

>  <SCORE.INTER.norm>  (15) 
-0.256861

>  <SCORE.INTRA>  (15) 
2.03139

>  <SCORE.INTRA.DIHEDRAL>  (15) 
1.33729

>  <SCORE.INTRA.DIHEDRAL.0>  (15) 
3.78927

>  <SCORE.INTRA.POLAR>  (15) 
0

>  <SCORE.INTRA.POLAR.0>  (15) 
0

>  <SCORE.INTRA.REPUL>  (15) 
0

>  <SCORE.INTRA.REPUL.0>  (15) 
0

>  <SCORE.INTRA.VDW>  (15) 
1.36275

>  <SCORE.INTRA.VDW.0>  (15) 
1.02728

>  <SCORE.INTRA.norm>  (15) 
0.0923361

>  <SCORE.RESTR>  (15) 
0.305488

>  <SCORE.RESTR.CAVITY>  (15) 
0.305488

>  <SCORE.RESTR.norm>  (15) 
0.0138858

>  <SCORE.SYSTEM>  (15) 
-14.2648

>  <SCORE.SYSTEM.CONST>  (15) 
0

>  <SCORE.SYSTEM.DIHEDRAL>  (15) 
2.89245

>  <SCORE.SYSTEM.POLAR>  (15) 
-4.10123

>  <SCORE.SYSTEM.REPUL>  (15) 
0.152442

>  <SCORE.SYSTEM.VDW>  (15) 
-2.52905

>  <SCORE.SYSTEM.norm>  (15) 
-0.648399

>  <SCORE.heavy>  (15) 
22

>  <SCORE.norm>  (15) 
-0.799038

$$$$
denovo_401
     RDKit          3D

 22 23  0  0  0  0  0  0  0  0999 V2000
   15.4378    9.6116    2.5032 C   0  0  0  0  0  0  0  0  0  0  0  0
   15.0742    8.4750    1.7310 O   0  0  0  0  0  0  0  0  0  0  0  0
   14.8514    7.3272    2.5534 C   0  0  0  0  0  0  0  0  0  0  0  0
   13.3381    7.1162    2.7777 C   0  0  2  0  0  0  0  0  0  0  0  0
   12.7518    6.3441    1.6008 C   0  0  0  0  0  0  0  0  0  0  0  0
   11.4575    5.8106    1.6949 C   0  0  0  0  0  0  0  0  0  0  0  0
   10.9022    5.0982    0.6305 C   0  0  0  0  0  0  0  0  0  0  0  0
   11.6330    4.9089   -0.5400 C   0  0  0  0  0  0  0  0  0  0  0  0
   12.9197    5.4315   -0.6475 C   0  0  0  0  0  0  0  0  0  0  0  0
   13.4772    6.1441    0.4157 C   0  0  0  0  0  0  0  0  0  0  0  0
   12.5779    8.4435    3.0291 C   0  0  2  0  0  0  0  0  0  0  0  0
   11.1773    8.2750    3.6270 C   0  0  0  0  0  0  0  0  0  0  0  0
   10.3754    9.5048    3.1898 C   0  0  0  0  0  0  0  0  0  0  0  0
   11.2649   10.2865    2.2193 C   0  0  2  0  0  0  0  0  0  0  0  0
   10.5534   10.9444    1.0244 C   0  0  0  0  0  0  0  0  0  0  0  0
   11.3326   12.0218    0.1949 C   0  0  0  0  0  0  0  0  0  0  0  0
   12.5780   11.3798   -0.4496 C   0  0  0  0  0  0  0  0  0  0  0  0
   10.3816   12.4589   -0.9484 C   0  0  0  0  0  0  0  0  0  0  0  0
   11.7410   13.2609    1.0527 C   0  0  1  0  0  0  0  0  0  0  0  0
   10.6044   13.9154    1.8386 C   0  0  0  0  0  0  0  0  0  0  0  0
   12.7393   12.9117    2.0131 O   0  0  0  0  0  0  0  0  0  0  0  0
   12.2836    9.2383    1.7525 C   0  0  0  0  0  0  0  0  0  0  0  0
  1  2  1  0
  2  3  1  0
  4  3  1  6
  4  5  1  0
  5  6  2  0
  6  7  1  0
  7  8  2  0
  8  9  1  0
  9 10  2  0
  4 11  1  0
 11 12  1  6
 12 13  1  0
 13 14  1  0
 14 15  1  6
 15 16  1  0
 16 17  1  0
 16 18  1  0
 16 19  1  0
 19 20  1  1
 19 21  1  0
 14 22  1  0
 10  5  1  0
 22 11  1  0
M  END
>  <CHROM.0>  (16) 
169.40296963,-60.23636244,178.24438045,65.90803222,65.71947013,64.61496967
-162.60932585

>  <CHROM.1>  (16) 
100.11746980,83.95797683,167.77376050,-164.12476299,165.85338684,62.17351341
-52.15433307,-63.84930483,12.27548465,9.15782767,1.43588536,-1.33134792,-0.56053020
0.12010924

>  <Name>  (16) 
denovo_401

>  <RI>  (16) 
1.02415e+09

>  <Rbt.Current_Directory>  (16) 
/tmp/claude-0/-home-user-Rare-cancers/1af35c7f-7dc4-53ce-91d2-1631a2a10a85/scratchpad/smwork/cross/dock_metad-opened_v2

>  <Rbt.Executable>  (16) 
rbdock - v25.07-alpha

>  <Rbt.Library>  (16) 
libRbt.so (25.07, Buildalpha)

>  <Rbt.Parameter_File>  (16) 
/tmp/claude-0/-home-user-Rare-cancers/1af35c7f-7dc4-53ce-91d2-1631a2a10a85/scratchpad/rdroot/share/rDock/data/scripts/dock.prm

>  <Rbt.Receptor>  (16) 
rec.prm

>  <SCORE>  (16) 
-16.9936

>  <SCORE.INTER>  (16) 
-8.79885

>  <SCORE.INTER.CONST>  (16) 
1

>  <SCORE.INTER.POLAR>  (16) 
-0.0511038

>  <SCORE.INTER.REPUL>  (16) 
0

>  <SCORE.INTER.ROT>  (16) 
7

>  <SCORE.INTER.VDW>  (16) 
-21.0251

>  <SCORE.INTER.norm>  (16) 
-0.399948

>  <SCORE.INTRA>  (16) 
6.89189

>  <SCORE.INTRA.DIHEDRAL>  (16) 
6.52299

>  <SCORE.INTRA.DIHEDRAL.0>  (16) 
3.78927

>  <SCORE.INTRA.POLAR>  (16) 
0

>  <SCORE.INTRA.POLAR.0>  (16) 
0

>  <SCORE.INTRA.REPUL>  (16) 
0

>  <SCORE.INTRA.REPUL.0>  (16) 
0

>  <SCORE.INTRA.VDW>  (16) 
3.63039

>  <SCORE.INTRA.VDW.0>  (16) 
1.02728

>  <SCORE.INTRA.norm>  (16) 
0.313268

>  <SCORE.RESTR>  (16) 
0.150673

>  <SCORE.RESTR.CAVITY>  (16) 
0.150673

>  <SCORE.RESTR.norm>  (16) 
0.00684877

>  <SCORE.SYSTEM>  (16) 
-15.2373

>  <SCORE.SYSTEM.CONST>  (16) 
0

>  <SCORE.SYSTEM.DIHEDRAL>  (16) 
2.62005

>  <SCORE.SYSTEM.POLAR>  (16) 
-4.46284

>  <SCORE.SYSTEM.REPUL>  (16) 
0.353536

>  <SCORE.SYSTEM.VDW>  (16) 
-3.14131

>  <SCORE.SYSTEM.norm>  (16) 
-0.692604

>  <SCORE.heavy>  (16) 
22

>  <SCORE.norm>  (16) 
-0.772435

$$$$
denovo_401
     RDKit          3D

 22 23  0  0  0  0  0  0  0  0999 V2000
   13.7931    4.9297    3.6101 C   0  0  0  0  0  0  0  0  0  0  0  0
   12.6117    5.3412    4.2849 O   0  0  0  0  0  0  0  0  0  0  0  0
   12.5140    6.7655    4.3575 C   0  0  0  0  0  0  0  0  0  0  0  0
   11.7161    7.3086    3.1519 C   0  0  2  0  0  0  0  0  0  0  0  0
   12.3185    6.7702    1.8587 C   0  0  0  0  0  0  0  0  0  0  0  0
   13.5648    7.2445    1.4221 C   0  0  0  0  0  0  0  0  0  0  0  0
   14.1335    6.7673    0.2399 C   0  0  0  0  0  0  0  0  0  0  0  0
   13.4642    5.8119   -0.5211 C   0  0  0  0  0  0  0  0  0  0  0  0
   12.2256    5.3327   -0.1011 C   0  0  0  0  0  0  0  0  0  0  0  0
   11.6547    5.8086    1.0807 C   0  0  0  0  0  0  0  0  0  0  0  0
   11.6237    8.8558    3.1413 C   0  0  2  0  0  0  0  0  0  0  0  0
   10.5125    9.4363    4.0221 C   0  0  0  0  0  0  0  0  0  0  0  0
   10.1397   10.7877    3.4046 C   0  0  0  0  0  0  0  0  0  0  0  0
   10.9211   10.9012    2.0928 C   0  0  2  0  0  0  0  0  0  0  0  0
   10.1850   11.5690    0.9185 C   0  0  0  0  0  0  0  0  0  0  0  0
   11.0379   12.2782   -0.1885 C   0  0  0  0  0  0  0  0  0  0  0  0
   11.6884   13.5501    0.3929 C   0  0  0  0  0  0  0  0  0  0  0  0
   12.1757   11.2921   -0.5565 C   0  0  0  0  0  0  0  0  0  0  0  0
   10.2016   12.6270   -1.4600 C   0  0  1  0  0  0  0  0  0  0  0  0
    9.1922   13.7625   -1.2876 C   0  0  0  0  0  0  0  0  0  0  0  0
   11.0516   13.0111   -2.5421 O   0  0  0  0  0  0  0  0  0  0  0  0
   11.2801    9.4450    1.7691 C   0  0  0  0  0  0  0  0  0  0  0  0
  1  2  1  0
  2  3  1  0
  4  3  1  1
  4  5  1  0
  5  6  2  0
  6  7  1  0
  7  8  2  0
  8  9  1  0
  9 10  2  0
  4 11  1  0
 11 12  1  1
 12 13  1  0
 13 14  1  0
 14 15  1  6
 15 16  1  0
 16 17  1  0
 16 18  1  0
 16 19  1  0
 19 20  1  1
 19 21  1  0
 14 22  1  0
 10  5  1  0
 22 11  1  0
M  END
>  <CHROM.0>  (17) 
168.08268900,-60.75241996,-67.24364865,65.78372531,73.46376752,64.88129931
-162.54244492

>  <CHROM.1>  (17) 
92.15676685,-52.58714325,-71.29649072,-82.97752815,153.52527170,-69.40249096
71.30595256,71.72446030,11.71551740,9.13870405,1.30811947,0.88572139,-1.11217109
2.06293983

>  <Name>  (17) 
denovo_401

>  <RI>  (17) 
1.02415e+09

>  <Rbt.Current_Directory>  (17) 
/tmp/claude-0/-home-user-Rare-cancers/1af35c7f-7dc4-53ce-91d2-1631a2a10a85/scratchpad/smwork/cross/dock_metad-opened_v2

>  <Rbt.Executable>  (17) 
rbdock - v25.07-alpha

>  <Rbt.Library>  (17) 
libRbt.so (25.07, Buildalpha)

>  <Rbt.Parameter_File>  (17) 
/tmp/claude-0/-home-user-Rare-cancers/1af35c7f-7dc4-53ce-91d2-1631a2a10a85/scratchpad/rdroot/share/rDock/data/scripts/dock.prm

>  <Rbt.Receptor>  (17) 
rec.prm

>  <SCORE>  (17) 
-16.9275

>  <SCORE.INTER>  (17) 
-9.08536

>  <SCORE.INTER.CONST>  (17) 
1

>  <SCORE.INTER.POLAR>  (17) 
-1.05717

>  <SCORE.INTER.REPUL>  (17) 
0

>  <SCORE.INTER.ROT>  (17) 
7

>  <SCORE.INTER.VDW>  (17) 
-17.891

>  <SCORE.INTER.norm>  (17) 
-0.412971

>  <SCORE.INTRA>  (17) 
7.45449

>  <SCORE.INTRA.DIHEDRAL>  (17) 
7.54756

>  <SCORE.INTRA.DIHEDRAL.0>  (17) 
3.78927

>  <SCORE.INTRA.POLAR>  (17) 
0

>  <SCORE.INTRA.POLAR.0>  (17) 
0

>  <SCORE.INTRA.REPUL>  (17) 
0

>  <SCORE.INTRA.REPUL.0>  (17) 
0

>  <SCORE.INTRA.VDW>  (17) 
3.68071

>  <SCORE.INTRA.VDW.0>  (17) 
1.02728

>  <SCORE.INTRA.norm>  (17) 
0.33884

>  <SCORE.RESTR>  (17) 
0.0843983

>  <SCORE.RESTR.CAVITY>  (17) 
0.0843983

>  <SCORE.RESTR.norm>  (17) 
0.00383629

>  <SCORE.SYSTEM>  (17) 
-15.381

>  <SCORE.SYSTEM.CONST>  (17) 
0

>  <SCORE.SYSTEM.DIHEDRAL>  (17) 
3.67117

>  <SCORE.SYSTEM.POLAR>  (17) 
-4.54806

>  <SCORE.SYSTEM.REPUL>  (17) 
0.295576

>  <SCORE.SYSTEM.VDW>  (17) 
-3.23112

>  <SCORE.SYSTEM.norm>  (17) 
-0.699139

>  <SCORE.heavy>  (17) 
22

>  <SCORE.norm>  (17) 
-0.769433

$$$$
denovo_401
     RDKit          3D

 22 23  0  0  0  0  0  0  0  0999 V2000
   10.7633   14.4996    0.9537 C   0  0  0  0  0  0  0  0  0  0  0  0
   11.0852   13.2433    0.3718 O   0  0  0  0  0  0  0  0  0  0  0  0
   12.4981   13.0339    0.3158 C   0  0  0  0  0  0  0  0  0  0  0  0
   12.8067   11.5790   -0.1001 C   0  0  2  0  0  0  0  0  0  0  0  0
   12.5422   11.4091   -1.5922 C   0  0  0  0  0  0  0  0  0  0  0  0
   11.2217   11.3893   -2.0663 C   0  0  0  0  0  0  0  0  0  0  0  0
   10.9568   11.2322   -3.4279 C   0  0  0  0  0  0  0  0  0  0  0  0
   12.0068   11.0920   -4.3321 C   0  0  0  0  0  0  0  0  0  0  0  0
   13.3228   11.1084   -3.8760 C   0  0  0  0  0  0  0  0  0  0  0  0
   13.5903   11.2650   -2.5148 C   0  0  0  0  0  0  0  0  0  0  0  0
   12.0291   10.5362    0.7428 C   0  0  2  0  0  0  0  0  0  0  0  0
   11.7647   10.9547    2.1929 C   0  0  0  0  0  0  0  0  0  0  0  0
   11.6340    9.6564    2.9953 C   0  0  0  0  0  0  0  0  0  0  0  0
   11.9800    8.5123    2.0384 C   0  0  2  0  0  0  0  0  0  0  0  0
   12.7730    7.3392    2.6398 C   0  0  0  0  0  0  0  0  0  0  0  0
   12.7617    5.9669    1.8829 C   0  0  0  0  0  0  0  0  0  0  0  0
   11.3176    5.6117    1.4741 C   0  0  0  0  0  0  0  0  0  0  0  0
   13.5805    6.1820    0.5846 C   0  0  0  0  0  0  0  0  0  0  0  0
   13.3892    4.8113    2.7247 C   0  0  1  0  0  0  0  0  0  0  0  0
   14.8886    4.9393    2.9956 C   0  0  0  0  0  0  0  0  0  0  0  0
   12.7609    4.7105    4.0038 O   0  0  0  0  0  0  0  0  0  0  0  0
   12.7751    9.2104    0.9272 C   0  0  0  0  0  0  0  0  0  0  0  0
  1  2  1  0
  2  3  1  0
  4  3  1  1
  4  5  1  0
  5  6  2  0
  6  7  1  0
  7  8  2  0
  8  9  1  0
  9 10  2  0
  4 11  1  0
 11 12  1  1
 12 13  1  0
 13 14  1  0
 14 15  1  1
 15 16  1  0
 16 17  1  0
 16 18  1  0
 16 19  1  0
 19 20  1  1
 19 21  1  0
 14 22  1  0
 10  5  1  0
 22 11  1  0
M  END
>  <CHROM.0>  (18) 
76.28243030,-176.21138630,-177.44336510,65.47709492,-54.76581270,68.11540463
-162.09993447

>  <CHROM.1>  (18) 
170.66250274,74.77073396,-72.28826706,-32.28905115,160.59771010,-46.48697803
-66.66320421,63.39602225,12.37650774,9.41195005,0.50647620,2.10052418,1.27629656
-1.07843434

>  <Name>  (18) 
denovo_401

>  <RI>  (18) 
1.02415e+09

>  <Rbt.Current_Directory>  (18) 
/tmp/claude-0/-home-user-Rare-cancers/1af35c7f-7dc4-53ce-91d2-1631a2a10a85/scratchpad/smwork/cross/dock_metad-opened_v2

>  <Rbt.Executable>  (18) 
rbdock - v25.07-alpha

>  <Rbt.Library>  (18) 
libRbt.so (25.07, Buildalpha)

>  <Rbt.Parameter_File>  (18) 
/tmp/claude-0/-home-user-Rare-cancers/1af35c7f-7dc4-53ce-91d2-1631a2a10a85/scratchpad/rdroot/share/rDock/data/scripts/dock.prm

>  <Rbt.Receptor>  (18) 
rec.prm

>  <SCORE>  (18) 
-16.3555

>  <SCORE.INTER>  (18) 
-6.18426

>  <SCORE.INTER.CONST>  (18) 
1

>  <SCORE.INTER.POLAR>  (18) 
0

>  <SCORE.INTER.REPUL>  (18) 
0.00801286

>  <SCORE.INTER.ROT>  (18) 
7

>  <SCORE.INTER.VDW>  (18) 
-18.6243

>  <SCORE.INTER.norm>  (18) 
-0.281103

>  <SCORE.INTRA>  (18) 
3.89676

>  <SCORE.INTRA.DIHEDRAL>  (18) 
3.47121

>  <SCORE.INTRA.DIHEDRAL.0>  (18) 
3.78927

>  <SCORE.INTRA.POLAR>  (18) 
0

>  <SCORE.INTRA.POLAR.0>  (18) 
0

>  <SCORE.INTRA.REPUL>  (18) 
0

>  <SCORE.INTRA.REPUL.0>  (18) 
0

>  <SCORE.INTRA.VDW>  (18) 
2.16115

>  <SCORE.INTRA.VDW.0>  (18) 
1.02728

>  <SCORE.INTRA.norm>  (18) 
0.177125

>  <SCORE.RESTR>  (18) 
0.613238

>  <SCORE.RESTR.CAVITY>  (18) 
0.613238

>  <SCORE.RESTR.norm>  (18) 
0.0278744

>  <SCORE.SYSTEM>  (18) 
-14.6813

>  <SCORE.SYSTEM.CONST>  (18) 
0

>  <SCORE.SYSTEM.DIHEDRAL>  (18) 
3.63579

>  <SCORE.SYSTEM.POLAR>  (18) 
-4.01683

>  <SCORE.SYSTEM.VDW>  (18) 
-2.84194

>  <SCORE.SYSTEM.norm>  (18) 
-0.667331

>  <SCORE.heavy>  (18) 
22

>  <SCORE.norm>  (18) 
-0.743434

$$$$
denovo_401
     RDKit          3D

 22 23  0  0  0  0  0  0  0  0999 V2000
   15.4772    3.5192    2.8550 C   0  0  0  0  0  0  0  0  0  0  0  0
   14.2491    4.1448    3.2025 O   0  0  0  0  0  0  0  0  0  0  0  0
   14.2616    5.5404    2.8938 C   0  0  0  0  0  0  0  0  0  0  0  0
   12.8173    6.0736    2.7713 C   0  0  2  0  0  0  0  0  0  0  0  0
   12.2124    5.6064    1.4519 C   0  0  0  0  0  0  0  0  0  0  0  0
   10.9084    5.0888    1.4296 C   0  0  0  0  0  0  0  0  0  0  0  0
   10.3361    4.6529    0.2333 C   0  0  0  0  0  0  0  0  0  0  0  0
   11.0592    4.7275   -0.9548 C   0  0  0  0  0  0  0  0  0  0  0  0
   12.3552    5.2377   -0.9480 C   0  0  0  0  0  0  0  0  0  0  0  0
   12.9298    5.6740    0.2472 C   0  0  0  0  0  0  0  0  0  0  0  0
   12.7307    7.6132    2.9289 C   0  0  2  0  0  0  0  0  0  0  0  0
   11.5314    8.1061    3.7452 C   0  0  0  0  0  0  0  0  0  0  0  0
   11.2319    9.5247    3.2505 C   0  0  0  0  0  0  0  0  0  0  0  0
   12.1522    9.7753    2.0529 C   0  0  2  0  0  0  0  0  0  0  0  0
   11.5505   10.5838    0.8905 C   0  0  0  0  0  0  0  0  0  0  0  0
   11.1987   12.0912    1.1355 C   0  0  0  0  0  0  0  0  0  0  0  0
   10.0538   12.1964    2.1636 C   0  0  0  0  0  0  0  0  0  0  0  0
   12.4605   12.7331    1.7667 C   0  0  0  0  0  0  0  0  0  0  0  0
   10.8195   12.8412   -0.1804 C   0  0  1  0  0  0  0  0  0  0  0  0
   11.8045   12.6706   -1.3374 C   0  0  0  0  0  0  0  0  0  0  0  0
    9.5505   12.4049   -0.6705 O   0  0  0  0  0  0  0  0  0  0  0  0
   12.5406    8.3602    1.6046 C   0  0  0  0  0  0  0  0  0  0  0  0
  1  2  1  0
  2  3  1  0
  4  3  1  6
  4  5  1  0
  5  6  2  0
  6  7  1  0
  7  8  2  0
  8  9  1  0
  9 10  2  0
  4 11  1  0
 11 12  1  1
 12 13  1  0
 13 14  1  0
 14 15  1  6
 15 16  1  0
 16 17  1  0
 16 18  1  0
 16 19  1  0
 19 20  1  6
 19 21  1  0
 14 22  1  0
 10  5  1  0
 22 11  1  0
M  END
>  <CHROM.0>  (19) 
-47.98634156,-57.24818815,56.79740632,64.66190942,-53.81417126,66.70208662
-163.28652341

>  <CHROM.1>  (19) 
158.77817995,-74.83973730,134.86276608,-139.72370743,66.89259304,-65.97602235
-50.13570150,69.83576199,12.01508069,8.21818490,1.39858380,-1.00779476,-1.01939191
0.32764917

>  <Name>  (19) 
denovo_401

>  <RI>  (19) 
1.02415e+09

>  <Rbt.Current_Directory>  (19) 
/tmp/claude-0/-home-user-Rare-cancers/1af35c7f-7dc4-53ce-91d2-1631a2a10a85/scratchpad/smwork/cross/dock_metad-opened_v2

>  <Rbt.Executable>  (19) 
rbdock - v25.07-alpha

>  <Rbt.Library>  (19) 
libRbt.so (25.07, Buildalpha)

>  <Rbt.Parameter_File>  (19) 
/tmp/claude-0/-home-user-Rare-cancers/1af35c7f-7dc4-53ce-91d2-1631a2a10a85/scratchpad/rdroot/share/rDock/data/scripts/dock.prm

>  <Rbt.Receptor>  (19) 
rec.prm

>  <SCORE>  (19) 
-16.2310

>  <SCORE.INTER>  (19) 
-5.29381

>  <SCORE.INTER.CONST>  (19) 
1

>  <SCORE.INTER.POLAR>  (19) 
-0.20925

>  <SCORE.INTER.REPUL>  (19) 
0

>  <SCORE.INTER.ROT>  (19) 
7

>  <SCORE.INTER.VDW>  (19) 
-16.9824

>  <SCORE.INTER.norm>  (19) 
-0.240628

>  <SCORE.INTRA>  (19) 
5.27471

>  <SCORE.INTRA.DIHEDRAL>  (19) 
5.67123

>  <SCORE.INTRA.DIHEDRAL.0>  (19) 
3.78927

>  <SCORE.INTRA.POLAR>  (19) 
0

>  <SCORE.INTRA.POLAR.0>  (19) 
0

>  <SCORE.INTRA.REPUL>  (19) 
0

>  <SCORE.INTRA.REPUL.0>  (19) 
0

>  <SCORE.INTRA.VDW>  (19) 
2.43909

>  <SCORE.INTRA.VDW.0>  (19) 
1.02728

>  <SCORE.INTRA.norm>  (19) 
0.239759

>  <SCORE.RESTR>  (19) 
0.000178191

>  <SCORE.RESTR.CAVITY>  (19) 
0.000178191

>  <SCORE.RESTR.norm>  (19) 
8.09957e-06

>  <SCORE.SYSTEM>  (19) 
-16.2121

>  <SCORE.SYSTEM.CONST>  (19) 
0

>  <SCORE.SYSTEM.DIHEDRAL>  (19) 
2.8165

>  <SCORE.SYSTEM.POLAR>  (19) 
-4.44678

>  <SCORE.SYSTEM.REPUL>  (19) 
0.043775

>  <SCORE.SYSTEM.VDW>  (19) 
-2.7202

>  <SCORE.SYSTEM.norm>  (19) 
-0.736914

>  <SCORE.heavy>  (19) 
22

>  <SCORE.norm>  (19) 
-0.737774

$$$$
denovo_401
     RDKit          3D

 22 23  0  0  0  0  0  0  0  0999 V2000
   15.2999    3.2237    2.5627 C   0  0  0  0  0  0  0  0  0  0  0  0
   14.2273    4.0918    2.2217 O   0  0  0  0  0  0  0  0  0  0  0  0
   14.5904    5.4657    2.3766 C   0  0  0  0  0  0  0  0  0  0  0  0
   13.3527    6.3700    2.1885 C   0  0  2  0  0  0  0  0  0  0  0  0
   12.4092    5.7364    1.1719 C   0  0  0  0  0  0  0  0  0  0  0  0
   12.7719    5.6968   -0.1829 C   0  0  0  0  0  0  0  0  0  0  0  0
   11.9221    5.1240   -1.1307 C   0  0  0  0  0  0  0  0  0  0  0  0
   10.6995    4.5849   -0.7374 C   0  0  0  0  0  0  0  0  0  0  0  0
   10.3253    4.6181    0.6039 C   0  0  0  0  0  0  0  0  0  0  0  0
   11.1733    5.1907    1.5535 C   0  0  0  0  0  0  0  0  0  0  0  0
   13.7251    7.8231    1.7979 C   0  0  2  0  0  0  0  0  0  0  0  0
   14.4900    8.5990    2.8752 C   0  0  0  0  0  0  0  0  0  0  0  0
   14.1825   10.0802    2.6344 C   0  0  0  0  0  0  0  0  0  0  0  0
   13.1248   10.1348    1.5288 C   0  0  2  0  0  0  0  0  0  0  0  0
   12.0425   11.2181    1.6762 C   0  0  0  0  0  0  0  0  0  0  0  0
   12.0842   12.4492    0.7073 C   0  0  0  0  0  0  0  0  0  0  0  0
   11.1034   13.5320    1.2016 C   0  0  0  0  0  0  0  0  0  0  0  0
   13.5178   13.0299    0.8067 C   0  0  0  0  0  0  0  0  0  0  0  0
   11.7667   12.0610   -0.7714 C   0  0  1  0  0  0  0  0  0  0  0  0
   10.3296   11.6103   -1.0350 C   0  0  0  0  0  0  0  0  0  0  0  0
   12.0068   13.1602   -1.6518 O   0  0  0  0  0  0  0  0  0  0  0  0
   12.5123    8.7283    1.5571 C   0  0  0  0  0  0  0  0  0  0  0  0
  1  2  1  0
  2  3  1  0
  4  3  1  6
  4  5  1  0
  5  6  2  0
  6  7  1  0
  7  8  2  0
  8  9  1  0
  9 10  2  0
  4 11  1  0
 11 12  1  1
 12 13  1  0
 13 14  1  0
 14 15  1  1
 15 16  1  0
 16 17  1  0
 16 18  1  0
 16 19  1  0
 19 20  1  1
 19 21  1  0
 14 22  1  0
 10  5  1  0
 22 11  1  0
M  END
>  <CHROM.0>  (20) 
67.07559629,-179.05523316,-71.75152089,70.09779231,-167.90537579,66.12245886
-162.33901748

>  <CHROM.1>  (20) 
-172.19753913,-32.69604327,-70.63554443,-65.24521110,108.16621995,-168.72518424
67.85023049,66.11717299,12.64816464,8.37761681,0.99287125,-1.37806495,-0.74388207
-0.02098674

>  <Name>  (20) 
denovo_401

>  <RI>  (20) 
1.02415e+09

>  <Rbt.Current_Directory>  (20) 
/tmp/claude-0/-home-user-Rare-cancers/1af35c7f-7dc4-53ce-91d2-1631a2a10a85/scratchpad/smwork/cross/dock_metad-opened_v2

>  <Rbt.Executable>  (20) 
rbdock - v25.07-alpha

>  <Rbt.Library>  (20) 
libRbt.so (25.07, Buildalpha)

>  <Rbt.Parameter_File>  (20) 
/tmp/claude-0/-home-user-Rare-cancers/1af35c7f-7dc4-53ce-91d2-1631a2a10a85/scratchpad/rdroot/share/rDock/data/scripts/dock.prm

>  <Rbt.Receptor>  (20) 
rec.prm

>  <SCORE>  (20) 
-16.1579

>  <SCORE.INTER>  (20) 
-8.38974

>  <SCORE.INTER.CONST>  (20) 
1

>  <SCORE.INTER.POLAR>  (20) 
-1.20539

>  <SCORE.INTER.REPUL>  (20) 
0.0487445

>  <SCORE.INTER.ROT>  (20) 
7

>  <SCORE.INTER.VDW>  (20) 
-16.9351

>  <SCORE.INTER.norm>  (20) 
-0.381352

>  <SCORE.INTRA>  (20) 
3.94707

>  <SCORE.INTRA.DIHEDRAL>  (20) 
6.38415

>  <SCORE.INTRA.DIHEDRAL.0>  (20) 
3.78927

>  <SCORE.INTRA.POLAR>  (20) 
0

>  <SCORE.INTRA.POLAR.0>  (20) 
0

>  <SCORE.INTRA.REPUL>  (20) 
0

>  <SCORE.INTRA.REPUL.0>  (20) 
0

>  <SCORE.INTRA.VDW>  (20) 
0.754999

>  <SCORE.INTRA.VDW.0>  (20) 
1.02728

>  <SCORE.INTRA.norm>  (20) 
0.179412

>  <SCORE.RESTR>  (20) 
1.10528

>  <SCORE.RESTR.CAVITY>  (20) 
1.10528

>  <SCORE.RESTR.norm>  (20) 
0.0502401

>  <SCORE.SYSTEM>  (20) 
-12.8205

>  <SCORE.SYSTEM.CONST>  (20) 
0

>  <SCORE.SYSTEM.DIHEDRAL>  (20) 
3.92143

>  <SCORE.SYSTEM.POLAR>  (20) 
-4.86255

>  <SCORE.SYSTEM.REPUL>  (20) 
0.00398876

>  <SCORE.SYSTEM.VDW>  (20) 
1.7315

>  <SCORE.SYSTEM.norm>  (20) 
-0.582751

>  <SCORE.heavy>  (20) 
22

>  <SCORE.norm>  (20) 
-0.73445

$$$$
denovo_401
     RDKit          3D

 22 23  0  0  0  0  0  0  0  0999 V2000
    9.7543   14.1229    0.0226 C   0  0  0  0  0  0  0  0  0  0  0  0
   10.9772   13.6913    0.6046 O   0  0  0  0  0  0  0  0  0  0  0  0
   10.8100   12.4825    1.3489 C   0  0  0  0  0  0  0  0  0  0  0  0
   11.8169   11.4150    0.8678 C   0  0  2  0  0  0  0  0  0  0  0  0
   11.8332   11.3810   -0.6566 C   0  0  0  0  0  0  0  0  0  0  0  0
   13.0495   11.2108   -1.3352 C   0  0  0  0  0  0  0  0  0  0  0  0
   13.0877   11.1794   -2.7303 C   0  0  0  0  0  0  0  0  0  0  0  0
   11.9123   11.3187   -3.4645 C   0  0  0  0  0  0  0  0  0  0  0  0
   10.6975   11.4897   -2.8047 C   0  0  0  0  0  0  0  0  0  0  0  0
   10.6568   11.5217   -1.4096 C   0  0  0  0  0  0  0  0  0  0  0  0
   11.5397   10.0139    1.4700 C   0  0  2  0  0  0  0  0  0  0  0  0
   11.4111    9.9878    2.9966 C   0  0  0  0  0  0  0  0  0  0  0  0
   11.8110    8.5756    3.4350 C   0  0  0  0  0  0  0  0  0  0  0  0
   12.3158    7.8537    2.1828 C   0  0  2  0  0  0  0  0  0  0  0  0
   13.5122    6.9068    2.3797 C   0  0  0  0  0  0  0  0  0  0  0  0
   13.3166    5.3842    2.0643 C   0  0  0  0  0  0  0  0  0  0  0  0
   12.1949    4.8100    2.9536 C   0  0  0  0  0  0  0  0  0  0  0  0
   12.8389    5.3050    0.5919 C   0  0  0  0  0  0  0  0  0  0  0  0
   14.6302    4.5597    2.2446 C   0  0  1  0  0  0  0  0  0  0  0  0
   15.2987    4.6858    3.6139 C   0  0  0  0  0  0  0  0  0  0  0  0
   14.3906    3.1654    2.0456 O   0  0  0  0  0  0  0  0  0  0  0  0
   12.6671    9.0041    1.2302 C   0  0  0  0  0  0  0  0  0  0  0  0
  1  2  1  0
  2  3  1  0
  4  3  1  6
  4  5  1  0
  5  6  2  0
  6  7  1  0
  7  8  2  0
  8  9  1  0
  9 10  2  0
  4 11  1  0
 11 12  1  1
 12 13  1  0
 13 14  1  0
 14 15  1  1
 15 16  1  0
 16 17  1  0
 16 18  1  0
 16 19  1  0
 19 20  1  1
 19 21  1  0
 14 22  1  0
 10  5  1  0
 22 11  1  0
M  END
>  <CHROM.0>  (21) 
65.90019764,-58.51671386,54.47557600,63.13250818,74.32783998,67.24784893
-161.62382775

>  <CHROM.1>  (21) 
126.24193796,-45.62635692,140.77821156,-52.07025016,118.07978344,-59.34171323
54.92233297,172.83312837,12.31372248,9.01997852,0.86809692,2.38925158,1.13359759
-1.18018672

>  <Name>  (21) 
denovo_401

>  <RI>  (21) 
1.02415e+09

>  <Rbt.Current_Directory>  (21) 
/tmp/claude-0/-home-user-Rare-cancers/1af35c7f-7dc4-53ce-91d2-1631a2a10a85/scratchpad/smwork/cross/dock_metad-opened_v2

>  <Rbt.Executable>  (21) 
rbdock - v25.07-alpha

>  <Rbt.Library>  (21) 
libRbt.so (25.07, Buildalpha)

>  <Rbt.Parameter_File>  (21) 
/tmp/claude-0/-home-user-Rare-cancers/1af35c7f-7dc4-53ce-91d2-1631a2a10a85/scratchpad/rdroot/share/rDock/data/scripts/dock.prm

>  <Rbt.Receptor>  (21) 
rec.prm

>  <SCORE>  (21) 
-15.3713

>  <SCORE.INTER>  (21) 
-4.87925

>  <SCORE.INTER.CONST>  (21) 
1

>  <SCORE.INTER.POLAR>  (21) 
-0.523073

>  <SCORE.INTER.REPUL>  (21) 
0

>  <SCORE.INTER.ROT>  (21) 
7

>  <SCORE.INTER.VDW>  (21) 
-15.5008

>  <SCORE.INTER.norm>  (21) 
-0.221784

>  <SCORE.INTRA>  (21) 
7.9007

>  <SCORE.INTRA.DIHEDRAL>  (21) 
12.0869

>  <SCORE.INTRA.DIHEDRAL.0>  (21) 
3.78927

>  <SCORE.INTRA.POLAR>  (21) 
0

>  <SCORE.INTRA.POLAR.0>  (21) 
0

>  <SCORE.INTRA.REPUL>  (21) 
0

>  <SCORE.INTRA.REPUL.0>  (21) 
0

>  <SCORE.INTRA.VDW>  (21) 
1.85728

>  <SCORE.INTRA.VDW.0>  (21) 
1.02728

>  <SCORE.INTRA.norm>  (21) 
0.359123

>  <SCORE.RESTR>  (21) 
0

>  <SCORE.RESTR.CAVITY>  (21) 
0

>  <SCORE.RESTR.norm>  (21) 
0

>  <SCORE.SYSTEM>  (21) 
-18.3928

>  <SCORE.SYSTEM.CONST>  (21) 
0

>  <SCORE.SYSTEM.DIHEDRAL>  (21) 
3.33481

>  <SCORE.SYSTEM.POLAR>  (21) 
-5.19473

>  <SCORE.SYSTEM.REPUL>  (21) 
0.296605

>  <SCORE.SYSTEM.VDW>  (21) 
-3.88113

>  <SCORE.SYSTEM.norm>  (21) 
-0.836036

>  <SCORE.heavy>  (21) 
22

>  <SCORE.norm>  (21) 
-0.698697

$$$$
denovo_401
     RDKit          3D

 22 23  0  0  0  0  0  0  0  0999 V2000
   13.7353    4.8912    3.5930 C   0  0  0  0  0  0  0  0  0  0  0  0
   12.6175    5.3402    4.3475 O   0  0  0  0  0  0  0  0  0  0  0  0
   12.5492    6.7673    4.3917 C   0  0  0  0  0  0  0  0  0  0  0  0
   11.7034    7.2985    3.2137 C   0  0  2  0  0  0  0  0  0  0  0  0
   12.2715    6.7713    1.9006 C   0  0  0  0  0  0  0  0  0  0  0  0
   11.5670    5.7944    1.1808 C   0  0  0  0  0  0  0  0  0  0  0  0
   12.0701    5.2959   -0.0222 C   0  0  0  0  0  0  0  0  0  0  0  0
   13.2829    5.7659   -0.5202 C   0  0  0  0  0  0  0  0  0  0  0  0
   13.9942    6.7345    0.1840 C   0  0  0  0  0  0  0  0  0  0  0  0
   13.4933    7.2344    1.3874 C   0  0  0  0  0  0  0  0  0  0  0  0
   11.5856    8.8441    3.2085 C   0  0  2  0  0  0  0  0  0  0  0  0
   10.5120    9.4070    4.1456 C   0  0  0  0  0  0  0  0  0  0  0  0
   10.0862   10.7519    3.5486 C   0  0  0  0  0  0  0  0  0  0  0  0
   10.7971   10.8774    2.1984 C   0  0  2  0  0  0  0  0  0  0  0  0
    9.9908   11.5327    1.0638 C   0  0  0  0  0  0  0  0  0  0  0  0
   10.7685   12.3340   -0.0359 C   0  0  0  0  0  0  0  0  0  0  0  0
   11.6942   11.3788   -0.8166 C   0  0  0  0  0  0  0  0  0  0  0  0
    9.6978   12.8653   -1.0227 C   0  0  0  0  0  0  0  0  0  0  0  0
   11.5879   13.5246    0.5548 C   0  0  1  0  0  0  0  0  0  0  0  0
   12.5872   14.1706   -0.4053 C   0  0  0  0  0  0  0  0  0  0  0  0
   10.7227   14.5733    0.9937 O   0  0  0  0  0  0  0  0  0  0  0  0
   11.1623    9.4270    1.8561 C   0  0  0  0  0  0  0  0  0  0  0  0
  1  2  1  0
  2  3  1  0
  4  3  1  1
  4  5  1  0
  5  6  2  0
  6  7  1  0
  7  8  2  0
  8  9  1  0
  9 10  2  0
  4 11  1  0
 11 12  1  1
 12 13  1  0
 13 14  1  0
 14 15  1  6
 15 16  1  0
 16 17  1  0
 16 18  1  0
 16 19  1  0
 19 20  1  6
 19 21  1  0
 14 22  1  0
 10  5  1  0
 22 11  1  0
M  END
>  <CHROM.0>  (22) 
-47.64391381,-61.14940253,-71.63646457,65.48979418,70.52061098,66.02971117
-162.33428904

>  <CHROM.1>  (22) 
90.43919671,-55.16922734,108.61897234,-81.90702189,149.64830294,63.87028674
168.09753074,65.13204254,11.73381077,9.24344023,1.60468051,0.93277958,-1.16437122
2.26040285

>  <Name>  (22) 
denovo_401

>  <RI>  (22) 
1.02415e+09

>  <Rbt.Current_Directory>  (22) 
/tmp/claude-0/-home-user-Rare-cancers/1af35c7f-7dc4-53ce-91d2-1631a2a10a85/scratchpad/smwork/cross/dock_metad-opened_v2

>  <Rbt.Executable>  (22) 
rbdock - v25.07-alpha

>  <Rbt.Library>  (22) 
libRbt.so (25.07, Buildalpha)

>  <Rbt.Parameter_File>  (22) 
/tmp/claude-0/-home-user-Rare-cancers/1af35c7f-7dc4-53ce-91d2-1631a2a10a85/scratchpad/rdroot/share/rDock/data/scripts/dock.prm

>  <Rbt.Receptor>  (22) 
rec.prm

>  <SCORE>  (22) 
-15.1337

>  <SCORE.INTER>  (22) 
-5.7769

>  <SCORE.INTER.CONST>  (22) 
1

>  <SCORE.INTER.POLAR>  (22) 
-0.197001

>  <SCORE.INTER.REPUL>  (22) 
0

>  <SCORE.INTER.ROT>  (22) 
7

>  <SCORE.INTER.VDW>  (22) 
-17.5071

>  <SCORE.INTER.norm>  (22) 
-0.262586

>  <SCORE.INTRA>  (22) 
5.65437

>  <SCORE.INTRA.DIHEDRAL>  (22) 
6.84118

>  <SCORE.INTRA.DIHEDRAL.0>  (22) 
3.78927

>  <SCORE.INTRA.POLAR>  (22) 
0

>  <SCORE.INTRA.POLAR.0>  (22) 
0

>  <SCORE.INTRA.REPUL>  (22) 
0

>  <SCORE.INTRA.REPUL.0>  (22) 
0

>  <SCORE.INTRA.VDW>  (22) 
2.23378

>  <SCORE.INTRA.VDW.0>  (22) 
1.02728

>  <SCORE.INTRA.norm>  (22) 
0.257017

>  <SCORE.RESTR>  (22) 
0.696349

>  <SCORE.RESTR.CAVITY>  (22) 
0.696349

>  <SCORE.RESTR.norm>  (22) 
0.0316522

>  <SCORE.SYSTEM>  (22) 
-15.7075

>  <SCORE.SYSTEM.CONST>  (22) 
0

>  <SCORE.SYSTEM.DIHEDRAL>  (22) 
3.88566

>  <SCORE.SYSTEM.POLAR>  (22) 
-4.59496

>  <SCORE.SYSTEM.REPUL>  (22) 
0.324799

>  <SCORE.SYSTEM.VDW>  (22) 
-3.65142

>  <SCORE.SYSTEM.norm>  (22) 
-0.713976

>  <SCORE.heavy>  (22) 
22

>  <SCORE.norm>  (22) 
-0.687893

$$$$
denovo_401
     RDKit          3D

 22 23  0  0  0  0  0  0  0  0999 V2000
   14.8903    4.0872    2.6988 C   0  0  0  0  0  0  0  0  0  0  0  0
   15.3613    5.3264    3.2116 O   0  0  0  0  0  0  0  0  0  0  0  0
   14.8210    6.4359    2.4902 C   0  0  0  0  0  0  0  0  0  0  0  0
   13.2941    6.5209    2.7053 C   0  0  2  0  0  0  0  0  0  0  0  0
   12.5760    5.9389    1.4926 C   0  0  0  0  0  0  0  0  0  0  0  0
   11.2641    5.4592    1.6255 C   0  0  0  0  0  0  0  0  0  0  0  0
   10.5890    4.9200    0.5291 C   0  0  0  0  0  0  0  0  0  0  0  0
   11.2159    4.8523   -0.7128 C   0  0  0  0  0  0  0  0  0  0  0  0
   12.5185    5.3234   -0.8598 C   0  0  0  0  0  0  0  0  0  0  0  0
   13.1958    5.8628    0.2354 C   0  0  0  0  0  0  0  0  0  0  0  0
   12.8119    7.9596    3.0220 C   0  0  2  0  0  0  0  0  0  0  0  0
   11.5385    8.0351    3.8707 C   0  0  0  0  0  0  0  0  0  0  0  0
   10.8721    9.3700    3.5235 C   0  0  0  0  0  0  0  0  0  0  0  0
   11.6765    9.9751    2.3698 C   0  0  2  0  0  0  0  0  0  0  0  0
   10.8668   10.7151    1.2911 C   0  0  0  0  0  0  0  0  0  0  0  0
   11.5239   11.9487    0.5821 C   0  0  0  0  0  0  0  0  0  0  0  0
   10.5749   12.4868   -0.5081 C   0  0  0  0  0  0  0  0  0  0  0  0
   11.6668   13.0462    1.6673 C   0  0  0  0  0  0  0  0  0  0  0  0
   12.9219   11.6164   -0.0286 C   0  0  1  0  0  0  0  0  0  0  0  0
   14.0073   11.2496    0.9839 C   0  0  0  0  0  0  0  0  0  0  0  0
   12.8356   10.5161   -0.9357 O   0  0  0  0  0  0  0  0  0  0  0  0
   12.4130    8.7648    1.7807 C   0  0  0  0  0  0  0  0  0  0  0  0
  1  2  1  0
  2  3  1  0
  4  3  1  6
  4  5  1  0
  5  6  2  0
  6  7  1  0
  7  8  2  0
  8  9  1  0
  9 10  2  0
  4 11  1  0
 11 12  1  1
 12 13  1  0
 13 14  1  0
 14 15  1  6
 15 16  1  0
 16 17  1  0
 16 18  1  0
 16 19  1  0
 19 20  1  1
 19 21  1  0
 14 22  1  0
 10  5  1  0
 22 11  1  0
M  END
>  <CHROM.0>  (23) 
-47.36155611,-57.45535809,179.36109556,65.09497181,-54.96985789,68.64035232
-163.14944417

>  <CHROM.1>  (23) 
65.81772114,-100.92695702,156.94324405,-152.03315664,147.03365225,176.95164766
-64.79034617,59.13152923,12.46738356,8.25963750,1.41192989,-1.14875899,-0.99330631
0.20809680

>  <Name>  (23) 
denovo_401

>  <RI>  (23) 
1.02415e+09

>  <Rbt.Current_Directory>  (23) 
/tmp/claude-0/-home-user-Rare-cancers/1af35c7f-7dc4-53ce-91d2-1631a2a10a85/scratchpad/smwork/cross/dock_metad-opened_v2

>  <Rbt.Executable>  (23) 
rbdock - v25.07-alpha

>  <Rbt.Library>  (23) 
libRbt.so (25.07, Buildalpha)

>  <Rbt.Parameter_File>  (23) 
/tmp/claude-0/-home-user-Rare-cancers/1af35c7f-7dc4-53ce-91d2-1631a2a10a85/scratchpad/rdroot/share/rDock/data/scripts/dock.prm

>  <Rbt.Receptor>  (23) 
rec.prm

>  <SCORE>  (23) 
-14.8854

>  <SCORE.INTER>  (23) 
-6.72713

>  <SCORE.INTER.CONST>  (23) 
1

>  <SCORE.INTER.POLAR>  (23) 
0

>  <SCORE.INTER.REPUL>  (23) 
0

>  <SCORE.INTER.ROT>  (23) 
7

>  <SCORE.INTER.VDW>  (23) 
-19.1271

>  <SCORE.INTER.norm>  (23) 
-0.305778

>  <SCORE.INTRA>  (23) 
7.99895

>  <SCORE.INTRA.DIHEDRAL>  (23) 
8.05968

>  <SCORE.INTRA.DIHEDRAL.0>  (23) 
3.78927

>  <SCORE.INTRA.POLAR>  (23) 
0

>  <SCORE.INTRA.POLAR.0>  (23) 
0

>  <SCORE.INTRA.REPUL>  (23) 
0

>  <SCORE.INTRA.REPUL.0>  (23) 
0

>  <SCORE.INTRA.VDW>  (23) 
3.96911

>  <SCORE.INTRA.VDW.0>  (23) 
1.02728

>  <SCORE.INTRA.norm>  (23) 
0.363589

>  <SCORE.RESTR>  (23) 
0.18276

>  <SCORE.RESTR.CAVITY>  (23) 
0.18276

>  <SCORE.RESTR.norm>  (23) 
0.00830726

>  <SCORE.SYSTEM>  (23) 
-16.34

>  <SCORE.SYSTEM.CONST>  (23) 
0

>  <SCORE.SYSTEM.DIHEDRAL>  (23) 
2.95686

>  <SCORE.SYSTEM.POLAR>  (23) 
-4.43869

>  <SCORE.SYSTEM.REPUL>  (23) 
0.00550011

>  <SCORE.SYSTEM.VDW>  (23) 
-2.75436

>  <SCORE.SYSTEM.norm>  (23) 
-0.742727

>  <SCORE.heavy>  (23) 
22

>  <SCORE.norm>  (23) 
-0.676609

$$$$
denovo_401
     RDKit          3D

 22 23  0  0  0  0  0  0  0  0999 V2000
   11.4730   14.6125    1.1785 C   0  0  0  0  0  0  0  0  0  0  0  0
   10.7422   13.9208    2.1824 O   0  0  0  0  0  0  0  0  0  0  0  0
   10.1261   12.7384    1.6669 C   0  0  0  0  0  0  0  0  0  0  0  0
   11.2008   11.6893    1.3071 C   0  0  2  0  0  0  0  0  0  0  0  0
   11.3815   11.6440   -0.2063 C   0  0  0  0  0  0  0  0  0  0  0  0
   10.2820   11.8816   -1.0451 C   0  0  0  0  0  0  0  0  0  0  0  0
   10.4244   11.8425   -2.4332 C   0  0  0  0  0  0  0  0  0  0  0  0
   11.6657   11.5646   -3.0005 C   0  0  0  0  0  0  0  0  0  0  0  0
   12.7660   11.3252   -2.1805 C   0  0  0  0  0  0  0  0  0  0  0  0
   12.6261   11.3635   -0.7920 C   0  0  0  0  0  0  0  0  0  0  0  0
   10.8894   10.2872    1.8900 C   0  0  2  0  0  0  0  0  0  0  0  0
   10.5047   10.2821    3.3731 C   0  0  0  0  0  0  0  0  0  0  0  0
   10.8882    8.8993    3.9093 C   0  0  0  0  0  0  0  0  0  0  0  0
   11.6308    8.1810    2.7794 C   0  0  2  0  0  0  0  0  0  0  0  0
   12.8182    7.2979    3.2000 C   0  0  0  0  0  0  0  0  0  0  0  0
   13.5125    6.4139    2.1079 C   0  0  0  0  0  0  0  0  0  0  0  0
   14.0291    7.3115    0.9651 C   0  0  0  0  0  0  0  0  0  0  0  0
   14.7430    5.7666    2.7929 C   0  0  0  0  0  0  0  0  0  0  0  0
   12.5696    5.3040    1.5448 C   0  0  1  0  0  0  0  0  0  0  0  0
   11.1879    5.7839    1.0993 C   0  0  0  0  0  0  0  0  0  0  0  0
   13.1539    4.6641    0.4089 O   0  0  0  0  0  0  0  0  0  0  0  0
   12.0860    9.3302    1.8703 C   0  0  0  0  0  0  0  0  0  0  0  0
  1  2  1  0
  2  3  1  0
  4  3  1  6
  4  5  1  0
  5  6  2  0
  6  7  1  0
  7  8  2  0
  8  9  1  0
  9 10  2  0
  4 11  1  0
 11 12  1  1
 12 13  1  0
 13 14  1  0
 14 15  1  1
 15 16  1  0
 16 17  1  0
 16 18  1  0
 16 19  1  0
 19 20  1  6
 19 21  1  0
 14 22  1  0
 10  5  1  0
 22 11  1  0
M  END
>  <CHROM.0>  (24) 
67.59872007,-176.06165297,177.51429689,65.74881785,73.37685668,66.12953766
-161.89379966

>  <CHROM.1>  (24) 
68.49957800,-104.13341700,-33.03388326,-48.09698377,173.21111528,58.08979287
49.76642301,-62.90800467,11.87002872,9.59147166,1.07161718,2.46952257,1.20957115
-1.13178832

>  <Name>  (24) 
denovo_401

>  <RI>  (24) 
1.02415e+09

>  <Rbt.Current_Directory>  (24) 
/tmp/claude-0/-home-user-Rare-cancers/1af35c7f-7dc4-53ce-91d2-1631a2a10a85/scratchpad/smwork/cross/dock_metad-opened_v2

>  <Rbt.Executable>  (24) 
rbdock - v25.07-alpha

>  <Rbt.Library>  (24) 
libRbt.so (25.07, Buildalpha)

>  <Rbt.Parameter_File>  (24) 
/tmp/claude-0/-home-user-Rare-cancers/1af35c7f-7dc4-53ce-91d2-1631a2a10a85/scratchpad/rdroot/share/rDock/data/scripts/dock.prm

>  <Rbt.Receptor>  (24) 
rec.prm

>  <SCORE>  (24) 
-14.3055

>  <SCORE.INTER>  (24) 
-8.10519

>  <SCORE.INTER.CONST>  (24) 
1

>  <SCORE.INTER.POLAR>  (24) 
-0.359356

>  <SCORE.INTER.REPUL>  (24) 
0

>  <SCORE.INTER.ROT>  (24) 
7

>  <SCORE.INTER.VDW>  (24) 
-19.2834

>  <SCORE.INTER.norm>  (24) 
-0.368418

>  <SCORE.INTRA>  (24) 
8.00802

>  <SCORE.INTRA.DIHEDRAL>  (24) 
3.3534

>  <SCORE.INTRA.DIHEDRAL.0>  (24) 
3.78927

>  <SCORE.INTRA.POLAR>  (24) 
0

>  <SCORE.INTRA.POLAR.0>  (24) 
0

>  <SCORE.INTRA.REPUL>  (24) 
0

>  <SCORE.INTRA.REPUL.0>  (24) 
0

>  <SCORE.INTRA.VDW>  (24) 
6.33132

>  <SCORE.INTRA.VDW.0>  (24) 
1.02728

>  <SCORE.INTRA.norm>  (24) 
0.364001

>  <SCORE.RESTR>  (24) 
0

>  <SCORE.RESTR.CAVITY>  (24) 
0

>  <SCORE.RESTR.norm>  (24) 
0

>  <SCORE.SYSTEM>  (24) 
-14.2084

>  <SCORE.SYSTEM.CONST>  (24) 
0

>  <SCORE.SYSTEM.DIHEDRAL>  (24) 
3.27883

>  <SCORE.SYSTEM.POLAR>  (24) 
-4.09037

>  <SCORE.SYSTEM.REPUL>  (24) 
0.296058

>  <SCORE.SYSTEM.VDW>  (24) 
-3.42081

>  <SCORE.SYSTEM.norm>  (24) 
-0.645836

>  <SCORE.heavy>  (24) 
22

>  <SCORE.norm>  (24) 
-0.650252

$$$$
denovo_401
     RDKit          3D

 22 23  0  0  0  0  0  0  0  0999 V2000
   11.4565    4.4922    4.2609 C   0  0  0  0  0  0  0  0  0  0  0  0
   12.6811    5.2107    4.1936 O   0  0  0  0  0  0  0  0  0  0  0  0
   12.4809    6.6138    4.3794 C   0  0  0  0  0  0  0  0  0  0  0  0
   11.6925    7.2033    3.1895 C   0  0  2  0  0  0  0  0  0  0  0  0
   12.3083    6.7195    1.8812 C   0  0  0  0  0  0  0  0  0  0  0  0
   13.5610    7.2078    1.4799 C   0  0  0  0  0  0  0  0  0  0  0  0
   14.1420    6.7803    0.2848 C   0  0  0  0  0  0  0  0  0  0  0  0
   13.4787    5.8612   -0.5246 C   0  0  0  0  0  0  0  0  0  0  0  0
   12.2339    5.3686   -0.1401 C   0  0  0  0  0  0  0  0  0  0  0  0
   11.6507    5.7948    1.0546 C   0  0  0  0  0  0  0  0  0  0  0  0
   11.5957    8.7495    3.2409 C   0  0  2  0  0  0  0  0  0  0  0  0
   10.5533    9.2929    4.2235 C   0  0  0  0  0  0  0  0  0  0  0  0
   10.1312   10.6632    3.6844 C   0  0  0  0  0  0  0  0  0  0  0  0
   10.8102   10.8268    2.3219 C   0  0  2  0  0  0  0  0  0  0  0  0
    9.9852   11.5317    1.2314 C   0  0  0  0  0  0  0  0  0  0  0  0
   10.6335   12.7387    0.4705 C   0  0  0  0  0  0  0  0  0  0  0  0
    9.6946   13.2029   -0.6618 C   0  0  0  0  0  0  0  0  0  0  0  0
   10.7387   13.8929    1.4995 C   0  0  0  0  0  0  0  0  0  0  0  0
   12.0474   12.4004   -0.0989 C   0  0  1  0  0  0  0  0  0  0  0  0
   13.0899   11.9889    0.9412 C   0  0  0  0  0  0  0  0  0  0  0  0
   11.9772   11.3265   -1.0385 O   0  0  0  0  0  0  0  0  0  0  0  0
   11.1472    9.3847    1.9205 C   0  0  0  0  0  0  0  0  0  0  0  0
  1  2  1  0
  2  3  1  0
  4  3  1  1
  4  5  1  0
  5  6  2  0
  6  7  1  0
  7  8  2  0
  8  9  1  0
  9 10  2  0
  4 11  1  0
 11 12  1  1
 12 13  1  0
 13 14  1  0
 14 15  1  6
 15 16  1  0
 16 17  1  0
 16 18  1  0
 16 19  1  0
 19 20  1  1
 19 21  1  0
 14 22  1  0
 10  5  1  0
 22 11  1  0
M  END
>  <CHROM.0>  (25) 
65.43054759,-57.84272943,175.45785544,66.10024705,70.93949994,65.43625841
-162.13840888

>  <CHROM.1>  (25) 
-67.17864758,-47.70813984,-70.89507929,-78.07771638,128.17320307,174.54386543
-59.76637869,-58.90698571,11.71703888,9.01237475,1.72827301,1.09104545,-1.09821374
2.42542917

>  <Name>  (25) 
denovo_401

>  <RI>  (25) 
1.02415e+09

>  <Rbt.Current_Directory>  (25) 
/tmp/claude-0/-home-user-Rare-cancers/1af35c7f-7dc4-53ce-91d2-1631a2a10a85/scratchpad/smwork/cross/dock_metad-opened_v2

>  <Rbt.Executable>  (25) 
rbdock - v25.07-alpha

>  <Rbt.Library>  (25) 
libRbt.so (25.07, Buildalpha)

>  <Rbt.Parameter_File>  (25) 
/tmp/claude-0/-home-user-Rare-cancers/1af35c7f-7dc4-53ce-91d2-1631a2a10a85/scratchpad/rdroot/share/rDock/data/scripts/dock.prm

>  <Rbt.Receptor>  (25) 
rec.prm

>  <SCORE>  (25) 
-14.0134

>  <SCORE.INTER>  (25) 
-0.710924

>  <SCORE.INTER.CONST>  (25) 
1

>  <SCORE.INTER.POLAR>  (25) 
0

>  <SCORE.INTER.REPUL>  (25) 
0

>  <SCORE.INTER.ROT>  (25) 
7

>  <SCORE.INTER.VDW>  (25) 
-13.1109

>  <SCORE.INTER.norm>  (25) 
-0.0323147

>  <SCORE.INTRA>  (25) 
5.32368

>  <SCORE.INTRA.DIHEDRAL>  (25) 
5.63738

>  <SCORE.INTRA.DIHEDRAL.0>  (25) 
3.78927

>  <SCORE.INTRA.POLAR>  (25) 
0

>  <SCORE.INTRA.POLAR.0>  (25) 
0

>  <SCORE.INTRA.REPUL>  (25) 
0

>  <SCORE.INTRA.REPUL.0>  (25) 
0

>  <SCORE.INTRA.VDW>  (25) 
2.50499

>  <SCORE.INTRA.VDW.0>  (25) 
1.02728

>  <SCORE.INTRA.norm>  (25) 
0.241985

>  <SCORE.RESTR>  (25) 
0.0522073

>  <SCORE.RESTR.CAVITY>  (25) 
0.0522073

>  <SCORE.RESTR.norm>  (25) 
0.00237306

>  <SCORE.SYSTEM>  (25) 
-18.6784

>  <SCORE.SYSTEM.CONST>  (25) 
0

>  <SCORE.SYSTEM.DIHEDRAL>  (25) 
2.84856

>  <SCORE.SYSTEM.POLAR>  (25) 
-5.26223

>  <SCORE.SYSTEM.REPUL>  (25) 
0.310395

>  <SCORE.SYSTEM.VDW>  (25) 
-3.76301

>  <SCORE.SYSTEM.norm>  (25) 
-0.849016

>  <SCORE.heavy>  (25) 
22

>  <SCORE.norm>  (25) 
-0.636972

$$$$
denovo_401
     RDKit          3D

 22 23  0  0  0  0  0  0  0  0999 V2000
   13.9113    4.7913    3.3786 C   0  0  0  0  0  0  0  0  0  0  0  0
   12.7497    5.1150    4.1310 O   0  0  0  0  0  0  0  0  0  0  0  0
   12.6069    6.5271    4.3006 C   0  0  0  0  0  0  0  0  0  0  0  0
   11.7772    7.1233    3.1425 C   0  0  2  0  0  0  0  0  0  0  0  0
   12.3511    6.6527    1.8104 C   0  0  0  0  0  0  0  0  0  0  0  0
   13.6092    7.1136    1.3937 C   0  0  0  0  0  0  0  0  0  0  0  0
   14.1522    6.6978    0.1768 C   0  0  0  0  0  0  0  0  0  0  0  0
   13.4452    5.8179   -0.6391 C   0  0  0  0  0  0  0  0  0  0  0  0
   12.1945    5.3529   -0.2394 C   0  0  0  0  0  0  0  0  0  0  0  0
   11.6493    5.7675    0.9770 C   0  0  0  0  0  0  0  0  0  0  0  0
   11.6763    8.6685    3.2100 C   0  0  2  0  0  0  0  0  0  0  0  0
   10.5428    9.1975    4.0948 C   0  0  0  0  0  0  0  0  0  0  0  0
   10.1760   10.5774    3.5400 C   0  0  0  0  0  0  0  0  0  0  0  0
   10.9853   10.7624    2.2535 C   0  0  2  0  0  0  0  0  0  0  0  0
   10.2712   11.4869    1.0993 C   0  0  0  0  0  0  0  0  0  0  0  0
   11.1275   12.3806    0.1379 C   0  0  0  0  0  0  0  0  0  0  0  0
   12.1434   11.5018   -0.6200 C   0  0  0  0  0  0  0  0  0  0  0  0
   10.1398   12.9655   -0.9035 C   0  0  0  0  0  0  0  0  0  0  0  0
   11.8606   13.5377    0.8872 C   0  0  1  0  0  0  0  0  0  0  0  0
   10.9544   14.6440    1.4282 C   0  0  0  0  0  0  0  0  0  0  0  0
   12.5923   13.0387    2.0082 O   0  0  0  0  0  0  0  0  0  0  0  0
   11.3595    9.3265    1.8629 C   0  0  0  0  0  0  0  0  0  0  0  0
  1  2  1  0
  2  3  1  0
  4  3  1  1
  4  5  1  0
  5  6  2  0
  6  7  1  0
  7  8  2  0
  8  9  1  0
  9 10  2  0
  4 11  1  0
 11 12  1  1
 12 13  1  0
 13 14  1  0
 14 15  1  6
 15 16  1  0
 16 17  1  0
 16 18  1  0
 16 19  1  0
 19 20  1  1
 19 21  1  0
 14 22  1  0
 10  5  1  0
 22 11  1  0
M  END
>  <CHROM.0>  (26) 
168.04118146,-57.16864695,61.58628908,64.53632244,70.74483420,65.25358714
-162.49796097

>  <CHROM.1>  (26) 
90.14201351,-50.58402733,-68.68366195,-85.62305416,147.15521507,63.84586687
-69.44862228,170.92172914,11.92258314,9.11791812,1.73299333,0.79857574,-1.22922924
2.21675312

>  <Name>  (26) 
denovo_401

>  <RI>  (26) 
1.02415e+09

>  <Rbt.Current_Directory>  (26) 
/tmp/claude-0/-home-user-Rare-cancers/1af35c7f-7dc4-53ce-91d2-1631a2a10a85/scratchpad/smwork/cross/dock_metad-opened_v2

>  <Rbt.Executable>  (26) 
rbdock - v25.07-alpha

>  <Rbt.Library>  (26) 
libRbt.so (25.07, Buildalpha)

>  <Rbt.Parameter_File>  (26) 
/tmp/claude-0/-home-user-Rare-cancers/1af35c7f-7dc4-53ce-91d2-1631a2a10a85/scratchpad/rdroot/share/rDock/data/scripts/dock.prm

>  <Rbt.Receptor>  (26) 
rec.prm

>  <SCORE>  (26) 
-13.7262

>  <SCORE.INTER>  (26) 
-5.50112

>  <SCORE.INTER.CONST>  (26) 
1

>  <SCORE.INTER.POLAR>  (26) 
-0.201497

>  <SCORE.INTER.REPUL>  (26) 
0

>  <SCORE.INTER.ROT>  (26) 
7

>  <SCORE.INTER.VDW>  (26) 
-17.216

>  <SCORE.INTER.norm>  (26) 
-0.250051

>  <SCORE.INTRA>  (26) 
6.65307

>  <SCORE.INTRA.DIHEDRAL>  (26) 
7.99269

>  <SCORE.INTRA.DIHEDRAL.0>  (26) 
3.78927

>  <SCORE.INTRA.POLAR>  (26) 
0

>  <SCORE.INTRA.POLAR.0>  (26) 
0

>  <SCORE.INTRA.REPUL>  (26) 
0

>  <SCORE.INTRA.REPUL.0>  (26) 
0

>  <SCORE.INTRA.VDW>  (26) 
2.65672

>  <SCORE.INTRA.VDW.0>  (26) 
1.02728

>  <SCORE.INTRA.norm>  (26) 
0.302412

>  <SCORE.RESTR>  (26) 
0.277503

>  <SCORE.RESTR.CAVITY>  (26) 
0.277503

>  <SCORE.RESTR.norm>  (26) 
0.0126138

>  <SCORE.SYSTEM>  (26) 
-15.1557

>  <SCORE.SYSTEM.CONST>  (26) 
0

>  <SCORE.SYSTEM.DIHEDRAL>  (26) 
3.14636

>  <SCORE.SYSTEM.POLAR>  (26) 
-4.49086

>  <SCORE.SYSTEM.REPUL>  (26) 
0.378585

>  <SCORE.SYSTEM.VDW>  (26) 
-3.35283

>  <SCORE.SYSTEM.norm>  (26) 
-0.688893

>  <SCORE.heavy>  (26) 
22

>  <SCORE.norm>  (26) 
-0.623918

$$$$
denovo_401
     RDKit          3D

 22 23  0  0  0  0  0  0  0  0999 V2000
    9.7474    9.6915    3.3036 C   0  0  0  0  0  0  0  0  0  0  0  0
    9.6014   10.4915    2.1378 O   0  0  0  0  0  0  0  0  0  0  0  0
   10.0532   11.8300    2.3560 C   0  0  0  0  0  0  0  0  0  0  0  0
   11.4855   12.0069    1.8063 C   0  0  2  0  0  0  0  0  0  0  0  0
   11.4613   11.9183    0.2843 C   0  0  0  0  0  0  0  0  0  0  0  0
   10.2564   12.1236   -0.4049 C   0  0  0  0  0  0  0  0  0  0  0  0
   10.2110   12.0447   -1.7979 C   0  0  0  0  0  0  0  0  0  0  0  0
   11.3676   11.7587   -2.5193 C   0  0  0  0  0  0  0  0  0  0  0  0
   12.5707   11.5511   -1.8488 C   0  0  0  0  0  0  0  0  0  0  0  0
   12.6186   11.6293   -0.4558 C   0  0  0  0  0  0  0  0  0  0  0  0
   12.4932   11.0037    2.4235 C   0  0  2  0  0  0  0  0  0  0  0  0
   13.9558   11.4583    2.3810 C   0  0  0  0  0  0  0  0  0  0  0  0
   14.8006   10.1805    2.3789 C   0  0  0  0  0  0  0  0  0  0  0  0
   13.8229    9.0082    2.2598 C   0  0  2  0  0  0  0  0  0  0  0  0
   14.2826    7.8251    1.3905 C   0  0  0  0  0  0  0  0  0  0  0  0
   13.6015    6.4308    1.6101 C   0  0  0  0  0  0  0  0  0  0  0  0
   13.5188    5.6765    0.2674 C   0  0  0  0  0  0  0  0  0  0  0  0
   14.5449    5.6305    2.5439 C   0  0  0  0  0  0  0  0  0  0  0  0
   12.1851    6.5491    2.2563 C   0  0  1  0  0  0  0  0  0  0  0  0
   11.4560    5.2240    2.4809 C   0  0  0  0  0  0  0  0  0  0  0  0
   12.2567    7.1853    3.5334 O   0  0  0  0  0  0  0  0  0  0  0  0
   12.5577    9.6611    1.6877 C   0  0  0  0  0  0  0  0  0  0  0  0
  1  2  1  0
  2  3  1  0
  4  3  1  1
  4  5  1  0
  5  6  2  0
  6  7  1  0
  7  8  2  0
  8  9  1  0
  9 10  2  0
  4 11  1  0
 11 12  1  6
 12 13  1  0
 13 14  1  0
 14 15  1  6
 15 16  1  0
 16 17  1  0
 16 18  1  0
 16 19  1  0
 19 20  1  1
 19 21  1  0
 14 22  1  0
 10  5  1  0
 22 11  1  0
M  END
>  <CHROM.0>  (27) 
68.36177493,50.02746836,59.25653075,65.37771875,-55.98099328,67.97219646
-163.34214902

>  <CHROM.1>  (27) 
98.79505679,68.27991415,19.83186355,-156.37078182,159.18307957,146.65233284
179.21044200,-62.30647008,12.21257412,9.49347978,1.35397583,2.04538321,0.75667645
-0.74790321

>  <Name>  (27) 
denovo_401

>  <RI>  (27) 
1.02415e+09

>  <Rbt.Current_Directory>  (27) 
/tmp/claude-0/-home-user-Rare-cancers/1af35c7f-7dc4-53ce-91d2-1631a2a10a85/scratchpad/smwork/cross/dock_metad-opened_v2

>  <Rbt.Executable>  (27) 
rbdock - v25.07-alpha

>  <Rbt.Library>  (27) 
libRbt.so (25.07, Buildalpha)

>  <Rbt.Parameter_File>  (27) 
/tmp/claude-0/-home-user-Rare-cancers/1af35c7f-7dc4-53ce-91d2-1631a2a10a85/scratchpad/rdroot/share/rDock/data/scripts/dock.prm

>  <Rbt.Receptor>  (27) 
rec.prm

>  <SCORE>  (27) 
-13.3593

>  <SCORE.INTER>  (27) 
-9.93511

>  <SCORE.INTER.CONST>  (27) 
1

>  <SCORE.INTER.POLAR>  (27) 
0

>  <SCORE.INTER.REPUL>  (27) 
0.0104816

>  <SCORE.INTER.ROT>  (27) 
7

>  <SCORE.INTER.VDW>  (27) 
-22.3875

>  <SCORE.INTER.norm>  (27) 
-0.451596

>  <SCORE.INTRA>  (27) 
10.7051

>  <SCORE.INTRA.DIHEDRAL>  (27) 
10.909

>  <SCORE.INTRA.DIHEDRAL.0>  (27) 
3.78927

>  <SCORE.INTRA.POLAR>  (27) 
0

>  <SCORE.INTRA.POLAR.0>  (27) 
0

>  <SCORE.INTRA.REPUL>  (27) 
0

>  <SCORE.INTRA.REPUL.0>  (27) 
0

>  <SCORE.INTRA.VDW>  (27) 
5.25053

>  <SCORE.INTRA.VDW.0>  (27) 
1.02728

>  <SCORE.INTRA.norm>  (27) 
0.486593

>  <SCORE.RESTR>  (27) 
0.0742109

>  <SCORE.RESTR.CAVITY>  (27) 
0.0742109

>  <SCORE.RESTR.norm>  (27) 
0.00337322

>  <SCORE.SYSTEM>  (27) 
-14.2035

>  <SCORE.SYSTEM.CONST>  (27) 
0

>  <SCORE.SYSTEM.DIHEDRAL>  (27) 
2.88041

>  <SCORE.SYSTEM.POLAR>  (27) 
-4.02934

>  <SCORE.SYSTEM.REPUL>  (27) 
0.149703

>  <SCORE.SYSTEM.VDW>  (27) 
-2.69245

>  <SCORE.SYSTEM.norm>  (27) 
-0.645613

>  <SCORE.heavy>  (27) 
22

>  <SCORE.norm>  (27) 
-0.607242

$$$$
denovo_401
     RDKit          3D

 22 23  0  0  0  0  0  0  0  0999 V2000
   12.5711   11.0427   -3.0401 C   0  0  0  0  0  0  0  0  0  0  0  0
   11.8533   11.0686   -1.8136 O   0  0  0  0  0  0  0  0  0  0  0  0
   12.6684   10.6515   -0.7159 C   0  0  0  0  0  0  0  0  0  0  0  0
   11.8698   10.7317    0.6035 C   0  0  2  0  0  0  0  0  0  0  0  0
   11.5437   12.1887    0.9134 C   0  0  0  0  0  0  0  0  0  0  0  0
   10.8978   12.5161    2.1152 C   0  0  0  0  0  0  0  0  0  0  0  0
   10.5874   13.8430    2.4178 C   0  0  0  0  0  0  0  0  0  0  0  0
   10.9172   14.8588    1.5236 C   0  0  0  0  0  0  0  0  0  0  0  0
   11.5574   14.5489    0.3260 C   0  0  0  0  0  0  0  0  0  0  0  0
   11.8685   13.2226    0.0210 C   0  0  0  0  0  0  0  0  0  0  0  0
   12.5953   10.0419    1.7869 C   0  0  2  0  0  0  0  0  0  0  0  0
   14.0140   10.5553    2.0542 C   0  0  0  0  0  0  0  0  0  0  0  0
   14.7680    9.4000    2.7200 C   0  0  0  0  0  0  0  0  0  0  0  0
   13.8329    8.1882    2.6861 C   0  0  2  0  0  0  0  0  0  0  0  0
   14.4962    6.8246    2.4258 C   0  0  0  0  0  0  0  0  0  0  0  0
   13.5751    5.5666    2.2677 C   0  0  0  0  0  0  0  0  0  0  0  0
   13.2107    5.3737    0.7816 C   0  0  0  0  0  0  0  0  0  0  0  0
   14.4271    4.3485    2.7068 C   0  0  0  0  0  0  0  0  0  0  0  0
   12.2821    5.6553    3.1384 C   0  0  1  0  0  0  0  0  0  0  0  0
   11.3782    4.4229    3.0943 C   0  0  0  0  0  0  0  0  0  0  0  0
   12.6050    5.8631    4.5144 O   0  0  0  0  0  0  0  0  0  0  0  0
   12.8357    8.5434    1.5754 C   0  0  0  0  0  0  0  0  0  0  0  0
  1  2  1  0
  2  3  1  0
  4  3  1  6
  4  5  1  0
  5  6  2  0
  6  7  1  0
  7  8  2  0
  8  9  1  0
  9 10  2  0
  4 11  1  0
 11 12  1  6
 12 13  1  0
 13 14  1  0
 14 15  1  6
 15 16  1  0
 16 17  1  0
 16 18  1  0
 16 19  1  0
 19 20  1  1
 19 21  1  0
 14 22  1  0
 10  5  1  0
 22 11  1  0
M  END
>  <CHROM.0>  (28) 
66.71785926,178.42243726,-71.54017139,65.54776063,73.47447202,66.85128625
-163.25254473

>  <CHROM.1>  (28) 
178.33879611,-65.96316171,-175.73363825,55.54936964,-175.23726055,90.83880257
-176.55518835,81.24483400,12.58447186,9.40456748,1.45409012,-2.41657948,-1.29522466
2.00077815

>  <Name>  (28) 
denovo_401

>  <RI>  (28) 
1.02415e+09

>  <Rbt.Current_Directory>  (28) 
/tmp/claude-0/-home-user-Rare-cancers/1af35c7f-7dc4-53ce-91d2-1631a2a10a85/scratchpad/smwork/cross/dock_metad-opened_v2

>  <Rbt.Executable>  (28) 
rbdock - v25.07-alpha

>  <Rbt.Library>  (28) 
libRbt.so (25.07, Buildalpha)

>  <Rbt.Parameter_File>  (28) 
/tmp/claude-0/-home-user-Rare-cancers/1af35c7f-7dc4-53ce-91d2-1631a2a10a85/scratchpad/rdroot/share/rDock/data/scripts/dock.prm

>  <Rbt.Receptor>  (28) 
rec.prm

>  <SCORE>  (28) 
-12.2618

>  <SCORE.INTER>  (28) 
-2.01842

>  <SCORE.INTER.CONST>  (28) 
1

>  <SCORE.INTER.POLAR>  (28) 
0

>  <SCORE.INTER.REPUL>  (28) 
0

>  <SCORE.INTER.ROT>  (28) 
7

>  <SCORE.INTER.VDW>  (28) 
-14.4184

>  <SCORE.INTER.norm>  (28) 
-0.0917466

>  <SCORE.INTRA>  (28) 
3.83331

>  <SCORE.INTRA.DIHEDRAL>  (28) 
2.58358

>  <SCORE.INTRA.DIHEDRAL.0>  (28) 
3.78927

>  <SCORE.INTRA.POLAR>  (28) 
0

>  <SCORE.INTRA.POLAR.0>  (28) 
0

>  <SCORE.INTRA.REPUL>  (28) 
0

>  <SCORE.INTRA.REPUL.0>  (28) 
0

>  <SCORE.INTRA.VDW>  (28) 
2.54152

>  <SCORE.INTRA.VDW.0>  (28) 
1.02728

>  <SCORE.INTRA.norm>  (28) 
0.174241

>  <SCORE.RESTR>  (28) 
0.271448

>  <SCORE.RESTR.CAVITY>  (28) 
0.271448

>  <SCORE.RESTR.norm>  (28) 
0.0123385

>  <SCORE.SYSTEM>  (28) 
-14.3481

>  <SCORE.SYSTEM.CONST>  (28) 
0

>  <SCORE.SYSTEM.DIHEDRAL>  (28) 
3.60454

>  <SCORE.SYSTEM.POLAR>  (28) 
-4.18557

>  <SCORE.SYSTEM.REPUL>  (28) 
0.295517

>  <SCORE.SYSTEM.VDW>  (28) 
-3.39704

>  <SCORE.SYSTEM.norm>  (28) 
-0.652188

>  <SCORE.heavy>  (28) 
22

>  <SCORE.norm>  (28) 
-0.557354

$$$$
denovo_401
     RDKit          3D

 22 23  0  0  0  0  0  0  0  0999 V2000
   15.4123    3.8013    2.9174 C   0  0  0  0  0  0  0  0  0  0  0  0
   14.1884    4.3980    3.3255 O   0  0  0  0  0  0  0  0  0  0  0  0
   14.1753    5.8042    3.0691 C   0  0  0  0  0  0  0  0  0  0  0  0
   12.7309    6.2874    2.8137 C   0  0  2  0  0  0  0  0  0  0  0  0
   12.2558    5.7774    1.4574 C   0  0  0  0  0  0  0  0  0  0  0  0
   10.9503    5.2822    1.3193 C   0  0  0  0  0  0  0  0  0  0  0  0
   10.4956    4.8080    0.0876 C   0  0  0  0  0  0  0  0  0  0  0  0
   11.3393    4.8215   -1.0206 C   0  0  0  0  0  0  0  0  0  0  0  0
   12.6384    5.3089   -0.8984 C   0  0  0  0  0  0  0  0  0  0  0  0
   13.0955    5.7834    0.3324 C   0  0  0  0  0  0  0  0  0  0  0  0
   12.5829    7.8258    2.9321 C   0  0  2  0  0  0  0  0  0  0  0  0
   11.6340    8.2937    4.0404 C   0  0  0  0  0  0  0  0  0  0  0  0
   11.1054    9.6625    3.6006 C   0  0  0  0  0  0  0  0  0  0  0  0
   11.6257    9.8982    2.1801 C   0  0  2  0  0  0  0  0  0  0  0  0
   10.6614   10.6040    1.2112 C   0  0  0  0  0  0  0  0  0  0  0  0
   11.2416   11.6917    0.2436 C   0  0  0  0  0  0  0  0  0  0  0  0
   12.5098   11.1491   -0.4463 C   0  0  0  0  0  0  0  0  0  0  0  0
   10.1673   11.9147   -0.8511 C   0  0  0  0  0  0  0  0  0  0  0  0
   11.5511   13.0386    0.9702 C   0  0  1  0  0  0  0  0  0  0  0  0
   12.5887   12.9541    2.0901 C   0  0  0  0  0  0  0  0  0  0  0  0
   12.0380   14.0166    0.0496 O   0  0  0  0  0  0  0  0  0  0  0  0
   11.9702    8.4850    1.6919 C   0  0  0  0  0  0  0  0  0  0  0  0
  1  2  1  0
  2  3  1  0
  4  3  1  6
  4  5  1  0
  5  6  2  0
  6  7  1  0
  7  8  2  0
  8  9  1  0
  9 10  2  0
  4 11  1  0
 11 12  1  1
 12 13  1  0
 13 14  1  0
 14 15  1  6
 15 16  1  0
 16 17  1  0
 16 18  1  0
 16 19  1  0
 19 20  1  1
 19 21  1  0
 14 22  1  0
 10  5  1  0
 22 11  1  0
M  END
>  <CHROM.0>  (29) 
66.50770805,-59.72023586,-179.03831952,64.43876380,67.86241294,65.35262702
-162.02907012

>  <CHROM.1>  (29) 
150.83320080,-71.40149652,138.23393647,-118.01480370,138.97693681,47.95687313
61.04975039,173.39167597,12.16655319,8.34240427,1.42924094,-1.10826630,-1.09889432
0.26962733

>  <Name>  (29) 
denovo_401

>  <RI>  (29) 
1.02415e+09

>  <Rbt.Current_Directory>  (29) 
/tmp/claude-0/-home-user-Rare-cancers/1af35c7f-7dc4-53ce-91d2-1631a2a10a85/scratchpad/smwork/cross/dock_metad-opened_v2

>  <Rbt.Executable>  (29) 
rbdock - v25.07-alpha

>  <Rbt.Library>  (29) 
libRbt.so (25.07, Buildalpha)

>  <Rbt.Parameter_File>  (29) 
/tmp/claude-0/-home-user-Rare-cancers/1af35c7f-7dc4-53ce-91d2-1631a2a10a85/scratchpad/rdroot/share/rDock/data/scripts/dock.prm

>  <Rbt.Receptor>  (29) 
rec.prm

>  <SCORE>  (29) 
-10.1724

>  <SCORE.INTER>  (29) 
0.216435

>  <SCORE.INTER.CONST>  (29) 
1

>  <SCORE.INTER.POLAR>  (29) 
0

>  <SCORE.INTER.REPUL>  (29) 
0

>  <SCORE.INTER.ROT>  (29) 
7

>  <SCORE.INTER.VDW>  (29) 
-12.1836

>  <SCORE.INTER.norm>  (29) 
0.00983794

>  <SCORE.INTRA>  (29) 
8.26896

>  <SCORE.INTRA.DIHEDRAL>  (29) 
13.0684

>  <SCORE.INTRA.DIHEDRAL.0>  (29) 
3.78927

>  <SCORE.INTRA.POLAR>  (29) 
0

>  <SCORE.INTRA.POLAR.0>  (29) 
0

>  <SCORE.INTRA.REPUL>  (29) 
0

>  <SCORE.INTRA.REPUL.0>  (29) 
0

>  <SCORE.INTRA.VDW>  (29) 
1.73479

>  <SCORE.INTRA.VDW.0>  (29) 
1.02728

>  <SCORE.INTRA.norm>  (29) 
0.375862

>  <SCORE.RESTR>  (29) 
0

>  <SCORE.RESTR.CAVITY>  (29) 
0

>  <SCORE.RESTR.norm>  (29) 
0

>  <SCORE.SYSTEM>  (29) 
-18.6578

>  <SCORE.SYSTEM.CONST>  (29) 
0

>  <SCORE.SYSTEM.DIHEDRAL>  (29) 
2.46076

>  <SCORE.SYSTEM.POLAR>  (29) 
-5.22407

>  <SCORE.SYSTEM.REPUL>  (29) 
0.336081

>  <SCORE.SYSTEM.VDW>  (29) 
-3.80676

>  <SCORE.SYSTEM.norm>  (29) 
-0.848083

>  <SCORE.heavy>  (29) 
22

>  <SCORE.norm>  (29) 
-0.462383

$$$$
denovo_401
     RDKit          3D

 22 23  0  0  0  0  0  0  0  0999 V2000
    9.9195    9.9880    6.0491 C   0  0  0  0  0  0  0  0  0  0  0  0
    9.1764   10.7127    5.0779 O   0  0  0  0  0  0  0  0  0  0  0  0
    9.4861   10.2854    3.7494 C   0  0  0  0  0  0  0  0  0  0  0  0
   10.6982   11.0716    3.2040 C   0  0  2  0  0  0  0  0  0  0  0  0
   10.3032   11.7879    1.9172 C   0  0  0  0  0  0  0  0  0  0  0  0
    9.6845   11.0689    0.8832 C   0  0  0  0  0  0  0  0  0  0  0  0
    9.3169   11.7041   -0.3043 C   0  0  0  0  0  0  0  0  0  0  0  0
    9.5636   13.0644   -0.4740 C   0  0  0  0  0  0  0  0  0  0  0  0
   10.1781   13.7909    0.5431 C   0  0  0  0  0  0  0  0  0  0  0  0
   10.5469   13.1578    1.7315 C   0  0  0  0  0  0  0  0  0  0  0  0
   11.9505   10.1804    3.0034 C   0  0  2  0  0  0  0  0  0  0  0  0
   13.0815   10.8368    2.2049 C   0  0  0  0  0  0  0  0  0  0  0  0
   13.8655    9.6926    1.5548 C   0  0  0  0  0  0  0  0  0  0  0  0
   13.0909    8.4057    1.8516 C   0  0  2  0  0  0  0  0  0  0  0  0
   13.0546    7.3588    0.7249 C   0  0  0  0  0  0  0  0  0  0  0  0
   12.9123    5.8480    1.1165 C   0  0  0  0  0  0  0  0  0  0  0  0
   12.7011    5.0002   -0.1545 C   0  0  0  0  0  0  0  0  0  0  0  0
   14.2690    5.4330    1.7408 C   0  0  0  0  0  0  0  0  0  0  0  0
   11.7566    5.5979    2.1361 C   0  0  1  0  0  0  0  0  0  0  0  0
   12.0142    6.1076    3.5545 C   0  0  0  0  0  0  0  0  0  0  0  0
   10.5473    6.2226    1.7022 O   0  0  0  0  0  0  0  0  0  0  0  0
   11.6818    8.9118    2.1870 C   0  0  0  0  0  0  0  0  0  0  0  0
  1  2  1  0
  2  3  1  0
  4  3  1  6
  4  5  1  0
  5  6  2  0
  6  7  1  0
  7  8  2  0
  8  9  1  0
  9 10  2  0
  4 11  1  0
 11 12  1  6
 12 13  1  0
 13 14  1  0
 14 15  1  6
 15 16  1  0
 16 17  1  0
 16 18  1  0
 16 19  1  0
 19 20  1  1
 19 21  1  0
 14 22  1  0
 10  5  1  0
 22 11  1  0
M  END
>  <CHROM.0>  (30) 
162.97300475,-56.64642495,-75.25842286,65.19253755,-165.21728450,66.62797074
-163.64802202

>  <CHROM.1>  (30) 
-87.55118950,-122.27416034,-51.29088299,168.13211400,151.65265123,172.20654602
-71.15894342,55.12194302,11.35788315,9.27651169,2.04895402,2.56258401,1.06552043
-0.87337097

>  <Name>  (30) 
denovo_401

>  <RI>  (30) 
1.02415e+09

>  <Rbt.Current_Directory>  (30) 
/tmp/claude-0/-home-user-Rare-cancers/1af35c7f-7dc4-53ce-91d2-1631a2a10a85/scratchpad/smwork/cross/dock_metad-opened_v2

>  <Rbt.Executable>  (30) 
rbdock - v25.07-alpha

>  <Rbt.Library>  (30) 
libRbt.so (25.07, Buildalpha)

>  <Rbt.Parameter_File>  (30) 
/tmp/claude-0/-home-user-Rare-cancers/1af35c7f-7dc4-53ce-91d2-1631a2a10a85/scratchpad/rdroot/share/rDock/data/scripts/dock.prm

>  <Rbt.Receptor>  (30) 
rec.prm

>  <SCORE>  (30) 
-9.1875

>  <SCORE.INTER>  (30) 
-2.58773

>  <SCORE.INTER.CONST>  (30) 
1

>  <SCORE.INTER.POLAR>  (30) 
-1.26422

>  <SCORE.INTER.REPUL>  (30) 
0

>  <SCORE.INTER.ROT>  (30) 
7

>  <SCORE.INTER.VDW>  (30) 
-10.6894

>  <SCORE.INTER.norm>  (30) 
-0.117624

>  <SCORE.INTRA>  (30) 
7.35629

>  <SCORE.INTRA.DIHEDRAL>  (30) 
10.2256

>  <SCORE.INTRA.DIHEDRAL.0>  (30) 
3.78927

>  <SCORE.INTRA.POLAR>  (30) 
0

>  <SCORE.INTRA.POLAR.0>  (30) 
0

>  <SCORE.INTRA.REPUL>  (30) 
0

>  <SCORE.INTRA.REPUL.0>  (30) 
0

>  <SCORE.INTRA.VDW>  (30) 
2.24348

>  <SCORE.INTRA.VDW.0>  (30) 
1.02728

>  <SCORE.INTRA.norm>  (30) 
0.334377

>  <SCORE.RESTR>  (30) 
0

>  <SCORE.RESTR.CAVITY>  (30) 
0

>  <SCORE.RESTR.norm>  (30) 
0

>  <SCORE.SYSTEM>  (30) 
-13.9561

>  <SCORE.SYSTEM.CONST>  (30) 
0

>  <SCORE.SYSTEM.DIHEDRAL>  (30) 
5.27301

>  <SCORE.SYSTEM.POLAR>  (30) 
-5.33283

>  <SCORE.SYSTEM.REPUL>  (30) 
0.0056711

>  <SCORE.SYSTEM.VDW>  (30) 
1.51067

>  <SCORE.SYSTEM.norm>  (30) 
-0.634367

>  <SCORE.heavy>  (30) 
22

>  <SCORE.norm>  (30) 
-0.417614

$$$$
denovo_401
     RDKit          3D

 22 23  0  0  0  0  0  0  0  0999 V2000
   14.7073    6.6150    1.7990 C   0  0  0  0  0  0  0  0  0  0  0  0
   14.9518    7.4875    2.8941 O   0  0  0  0  0  0  0  0  0  0  0  0
   14.1939    8.6947    2.7868 C   0  0  0  0  0  0  0  0  0  0  0  0
   12.8359    8.5388    3.5055 C   0  0  2  0  0  0  0  0  0  0  0  0
   12.2572    7.1601    3.2068 C   0  0  0  0  0  0  0  0  0  0  0  0
   12.3132    6.1557    4.1850 C   0  0  0  0  0  0  0  0  0  0  0  0
   11.7919    4.8857    3.9318 C   0  0  0  0  0  0  0  0  0  0  0  0
   11.2095    4.6030    2.6986 C   0  0  0  0  0  0  0  0  0  0  0  0
   11.1479    5.5895    1.7172 C   0  0  0  0  0  0  0  0  0  0  0  0
   11.6688    6.8602    1.9680 C   0  0  0  0  0  0  0  0  0  0  0  0
   11.8364    9.6695    3.1517 C   0  0  2  0  0  0  0  0  0  0  0  0
   10.3611    9.3012    3.3397 C   0  0  0  0  0  0  0  0  0  0  0  0
    9.5727   10.1861    2.3691 C   0  0  0  0  0  0  0  0  0  0  0  0
   10.6045   10.9370    1.5231 C   0  0  2  0  0  0  0  0  0  0  0  0
   10.2480   11.1430    0.0408 C   0  0  0  0  0  0  0  0  0  0  0  0
   11.0565   12.2063   -0.7788 C   0  0  0  0  0  0  0  0  0  0  0  0
   12.5626   12.0530   -0.4841 C   0  0  0  0  0  0  0  0  0  0  0  0
   10.8306   11.8640   -2.2735 C   0  0  0  0  0  0  0  0  0  0  0  0
   10.5913   13.6685   -0.4897 C   0  0  1  0  0  0  0  0  0  0  0  0
    9.1798   14.0120   -0.9667 C   0  0  0  0  0  0  0  0  0  0  0  0
   10.6162   13.9458    0.9116 O   0  0  0  0  0  0  0  0  0  0  0  0
   11.8728   10.0876    1.6780 C   0  0  0  0  0  0  0  0  0  0  0  0
  1  2  1  0
  2  3  1  0
  4  3  1  6
  4  5  1  0
  5  6  2  0
  6  7  1  0
  7  8  2  0
  8  9  1  0
  9 10  2  0
  4 11  1  0
 11 12  1  6
 12 13  1  0
 13 14  1  0
 14 15  1  6
 15 16  1  0
 16 17  1  0
 16 18  1  0
 16 19  1  0
 19 20  1  1
 19 21  1  0
 14 22  1  0
 10  5  1  0
 22 11  1  0
M  END
>  <CHROM.0>  (31) 
67.54581384,-61.75570700,60.54290204,65.63333107,-57.54512353,-53.46349469
-162.10260236

>  <CHROM.1>  (31) 
91.15034472,-41.41735293,103.86576763,156.17769640,164.18315178,45.23291603
-67.05612913,179.44624668,11.67036883,9.44738803,1.62359800,-1.29150565,0.07428517
-0.50136038

>  <Name>  (31) 
denovo_401

>  <RI>  (31) 
1.02415e+09

>  <Rbt.Current_Directory>  (31) 
/tmp/claude-0/-home-user-Rare-cancers/1af35c7f-7dc4-53ce-91d2-1631a2a10a85/scratchpad/smwork/cross/dock_metad-opened_v2

>  <Rbt.Executable>  (31) 
rbdock - v25.07-alpha

>  <Rbt.Library>  (31) 
libRbt.so (25.07, Buildalpha)

>  <Rbt.Parameter_File>  (31) 
/tmp/claude-0/-home-user-Rare-cancers/1af35c7f-7dc4-53ce-91d2-1631a2a10a85/scratchpad/rdroot/share/rDock/data/scripts/dock.prm

>  <Rbt.Receptor>  (31) 
rec.prm

>  <SCORE>  (31) 
-8.7324

>  <SCORE.INTER>  (31) 
-5.18631

>  <SCORE.INTER.CONST>  (31) 
1

>  <SCORE.INTER.POLAR>  (31) 
-0.23024

>  <SCORE.INTER.REPUL>  (31) 
0

>  <SCORE.INTER.ROT>  (31) 
7

>  <SCORE.INTER.VDW>  (31) 
-16.8035

>  <SCORE.INTER.norm>  (31) 
-0.235741

>  <SCORE.INTRA>  (31) 
9.42339

>  <SCORE.INTRA.DIHEDRAL>  (31) 
6.79258

>  <SCORE.INTRA.DIHEDRAL.0>  (31) 
3.78927

>  <SCORE.INTRA.POLAR>  (31) 
0

>  <SCORE.INTRA.POLAR.0>  (31) 
0

>  <SCORE.INTRA.REPUL>  (31) 
0

>  <SCORE.INTRA.REPUL.0>  (31) 
0

>  <SCORE.INTRA.VDW>  (31) 
6.0271

>  <SCORE.INTRA.VDW.0>  (31) 
1.02728

>  <SCORE.INTRA.norm>  (31) 
0.428336

>  <SCORE.RESTR>  (31) 
0.0117258

>  <SCORE.RESTR.CAVITY>  (31) 
0.0117258

>  <SCORE.RESTR.norm>  (31) 
0.000532993

>  <SCORE.SYSTEM>  (31) 
-12.9812

>  <SCORE.SYSTEM.CONST>  (31) 
0

>  <SCORE.SYSTEM.DIHEDRAL>  (31) 
2.40332

>  <SCORE.SYSTEM.POLAR>  (31) 
-4.4277

>  <SCORE.SYSTEM.REPUL>  (31) 
0.685386

>  <SCORE.SYSTEM.VDW>  (31) 
-2.55558

>  <SCORE.SYSTEM.norm>  (31) 
-0.590054

>  <SCORE.heavy>  (31) 
22

>  <SCORE.norm>  (31) 
-0.396926

$$$$
denovo_401
     RDKit          3D

 22 23  0  0  0  0  0  0  0  0999 V2000
    9.0779   14.0388   -1.2372 C   0  0  0  0  0  0  0  0  0  0  0  0
    9.8691   12.9133   -0.8800 O   0  0  0  0  0  0  0  0  0  0  0  0
   11.1612   13.3041   -0.4098 C   0  0  0  0  0  0  0  0  0  0  0  0
   12.1412   12.1131   -0.4881 C   0  0  2  0  0  0  0  0  0  0  0  0
   12.2896   11.6707   -1.9398 C   0  0  0  0  0  0  0  0  0  0  0  0
   11.1465   11.3639   -2.6934 C   0  0  0  0  0  0  0  0  0  0  0  0
   11.2595   10.9544   -4.0231 C   0  0  0  0  0  0  0  0  0  0  0  0
   12.5151   10.8452   -4.6160 C   0  0  0  0  0  0  0  0  0  0  0  0
   13.6590   11.1450   -3.8800 C   0  0  0  0  0  0  0  0  0  0  0  0
   13.5485   11.5545   -2.5499 C   0  0  0  0  0  0  0  0  0  0  0  0
   11.7289   10.9353    0.4314 C   0  0  2  0  0  0  0  0  0  0  0  0
   11.7554   11.2542    1.9299 C   0  0  0  0  0  0  0  0  0  0  0  0
   11.9912    9.9209    2.6463 C   0  0  0  0  0  0  0  0  0  0  0  0
   12.2558    8.8781    1.5570 C   0  0  2  0  0  0  0  0  0  0  0  0
   13.3177    7.8126    1.8793 C   0  0  0  0  0  0  0  0  0  0  0  0
   12.8591    6.4981    2.5989 C   0  0  0  0  0  0  0  0  0  0  0  0
   14.0554    5.5334    2.7293 C   0  0  0  0  0  0  0  0  0  0  0  0
   12.4304    6.9145    4.0290 C   0  0  0  0  0  0  0  0  0  0  0  0
   11.6709    5.7963    1.8684 C   0  0  1  0  0  0  0  0  0  0  0  0
   11.9404    5.3952    0.4178 C   0  0  0  0  0  0  0  0  0  0  0  0
   11.2878    4.5993    2.5477 O   0  0  0  0  0  0  0  0  0  0  0  0
   12.6690    9.7281    0.3482 C   0  0  0  0  0  0  0  0  0  0  0  0
  1  2  1  0
  2  3  1  0
  4  3  1  6
  4  5  1  0
  5  6  2  0
  6  7  1  0
  7  8  2  0
  8  9  1  0
  9 10  2  0
  4 11  1  0
 11 12  1  1
 12 13  1  0
 13 14  1  0
 14 15  1  1
 15 16  1  0
 16 17  1  0
 16 18  1  0
 16 19  1  0
 19 20  1  6
 19 21  1  0
 14 22  1  0
 10  5  1  0
 22 11  1  0
M  END
>  <CHROM.0>  (32) 
170.05790683,-59.82699451,-70.51310364,65.10067689,-54.07564342,-179.86030740
32.60287206

>  <CHROM.1>  (32) 
-160.79015189,61.64408980,-53.54416244,-64.49701075,88.83622941,175.83819764
58.83634076,171.34112566,11.98989085,9.62359556,0.09311325,1.92199045,1.18217964
-0.98245408

>  <Name>  (32) 
denovo_401

>  <RI>  (32) 
1.02415e+09

>  <Rbt.Current_Directory>  (32) 
/tmp/claude-0/-home-user-Rare-cancers/1af35c7f-7dc4-53ce-91d2-1631a2a10a85/scratchpad/smwork/cross/dock_metad-opened_v2

>  <Rbt.Executable>  (32) 
rbdock - v25.07-alpha

>  <Rbt.Library>  (32) 
libRbt.so (25.07, Buildalpha)

>  <Rbt.Parameter_File>  (32) 
/tmp/claude-0/-home-user-Rare-cancers/1af35c7f-7dc4-53ce-91d2-1631a2a10a85/scratchpad/rdroot/share/rDock/data/scripts/dock.prm

>  <Rbt.Receptor>  (32) 
rec.prm

>  <SCORE>  (32) 
-8.3954

>  <SCORE.INTER>  (32) 
-6.34173

>  <SCORE.INTER.CONST>  (32) 
1

>  <SCORE.INTER.POLAR>  (32) 
0

>  <SCORE.INTER.REPUL>  (32) 
0.000835074

>  <SCORE.INTER.ROT>  (32) 
7

>  <SCORE.INTER.VDW>  (32) 
-18.7459

>  <SCORE.INTER.norm>  (32) 
-0.28826

>  <SCORE.INTRA>  (32) 
1.8282

>  <SCORE.INTRA.DIHEDRAL>  (32) 
2.56073

>  <SCORE.INTRA.DIHEDRAL.0>  (32) 
3.78927

>  <SCORE.INTRA.POLAR>  (32) 
0

>  <SCORE.INTRA.POLAR.0>  (32) 
0

>  <SCORE.INTRA.REPUL>  (32) 
0

>  <SCORE.INTRA.REPUL.0>  (32) 
0

>  <SCORE.INTRA.VDW>  (32) 
0.547837

>  <SCORE.INTRA.VDW.0>  (32) 
1.02728

>  <SCORE.INTRA.norm>  (32) 
0.0831002

>  <SCORE.RESTR>  (32) 
0.0111841

>  <SCORE.RESTR.CAVITY>  (32) 
0.0111841

>  <SCORE.RESTR.norm>  (32) 
0.00050837

>  <SCORE.SYSTEM>  (32) 
-3.89301

>  <SCORE.SYSTEM.CONST>  (32) 
0

>  <SCORE.SYSTEM.DIHEDRAL>  (32) 
4.65576

>  <SCORE.SYSTEM.POLAR>  (32) 
-2.29203

>  <SCORE.SYSTEM.REPUL>  (32) 
0.0972105

>  <SCORE.SYSTEM.VDW>  (32) 
1.08594

>  <SCORE.SYSTEM.norm>  (32) 
-0.176955

>  <SCORE.heavy>  (32) 
22

>  <SCORE.norm>  (32) 
-0.381607

$$$$
denovo_401
     RDKit          3D

 22 23  0  0  0  0  0  0  0  0999 V2000
    9.0118   11.1439    0.8691 C   0  0  0  0  0  0  0  0  0  0  0  0
    9.2530   11.8000   -0.3685 O   0  0  0  0  0  0  0  0  0  0  0  0
   10.1066   12.9351   -0.2068 C   0  0  0  0  0  0  0  0  0  0  0  0
   11.5873   12.4963   -0.2183 C   0  0  2  0  0  0  0  0  0  0  0  0
   11.9249   11.8797   -1.5715 C   0  0  0  0  0  0  0  0  0  0  0  0
   13.2661   11.7619   -1.9665 C   0  0  0  0  0  0  0  0  0  0  0  0
   13.5977   11.2031   -3.2020 C   0  0  0  0  0  0  0  0  0  0  0  0
   12.5941   10.7563   -4.0583 C   0  0  0  0  0  0  0  0  0  0  0  0
   11.2581   10.8679   -3.6804 C   0  0  0  0  0  0  0  0  0  0  0  0
   10.9241   11.4267   -2.4454 C   0  0  0  0  0  0  0  0  0  0  0  0
   11.9393   11.5417    0.9511 C   0  0  2  0  0  0  0  0  0  0  0  0
   13.1668   11.9572    1.7686 C   0  0  0  0  0  0  0  0  0  0  0  0
   13.7377   10.6680    2.3674 C   0  0  0  0  0  0  0  0  0  0  0  0
   12.9353    9.5114    1.7652 C   0  0  2  0  0  0  0  0  0  0  0  0
   13.7265    8.2337    1.4362 C   0  0  0  0  0  0  0  0  0  0  0  0
   13.1519    6.8573    1.9174 C   0  0  0  0  0  0  0  0  0  0  0  0
   12.5487    6.0989    0.7175 C   0  0  0  0  0  0  0  0  0  0  0  0
   14.3631    6.0389    2.4327 C   0  0  0  0  0  0  0  0  0  0  0  0
   12.0910    7.0129    3.0523 C   0  0  1  0  0  0  0  0  0  0  0  0
   12.5345    7.8511    4.2517 C   0  0  0  0  0  0  0  0  0  0  0  0
   10.8988    7.6255    2.5579 O   0  0  0  0  0  0  0  0  0  0  0  0
   12.3228   10.1281    0.5007 C   0  0  0  0  0  0  0  0  0  0  0  0
  1  2  1  0
  2  3  1  0
  4  3  1  6
  4  5  1  0
  5  6  2  0
  6  7  1  0
  7  8  2  0
  8  9  1  0
  9 10  2  0
  4 11  1  0
 11 12  1  6
 12 13  1  0
 13 14  1  0
 14 15  1  6
 15 16  1  0
 16 17  1  0
 16 18  1  0
 16 19  1  0
 19 20  1  1
 19 21  1  0
 14 22  1  0
 10  5  1  0
 22 11  1  0
M  END
>  <CHROM.0>  (33) 
-50.83512155,-58.94876192,-179.29464634,66.68139563,-165.70281927,175.70110465
-161.44323641

>  <CHROM.1>  (33) 
84.08975668,62.76345404,161.61398438,-128.83608599,131.67555280,104.94910227
-52.18441496,67.19428657,12.09259725,9.93418611,0.39464378,1.91642032,0.87880428
-1.05809734

>  <Name>  (33) 
denovo_401

>  <RI>  (33) 
1.02415e+09

>  <Rbt.Current_Directory>  (33) 
/tmp/claude-0/-home-user-Rare-cancers/1af35c7f-7dc4-53ce-91d2-1631a2a10a85/scratchpad/smwork/cross/dock_metad-opened_v2

>  <Rbt.Executable>  (33) 
rbdock - v25.07-alpha

>  <Rbt.Library>  (33) 
libRbt.so (25.07, Buildalpha)

>  <Rbt.Parameter_File>  (33) 
/tmp/claude-0/-home-user-Rare-cancers/1af35c7f-7dc4-53ce-91d2-1631a2a10a85/scratchpad/rdroot/share/rDock/data/scripts/dock.prm

>  <Rbt.Receptor>  (33) 
rec.prm

>  <SCORE>  (33) 
-7.7962

>  <SCORE.INTER>  (33) 
-9.17838

>  <SCORE.INTER.CONST>  (33) 
1

>  <SCORE.INTER.POLAR>  (33) 
-0.280812

>  <SCORE.INTER.REPUL>  (33) 
0

>  <SCORE.INTER.ROT>  (33) 
7

>  <SCORE.INTER.VDW>  (33) 
-20.6236

>  <SCORE.INTER.norm>  (33) 
-0.417199

>  <SCORE.INTRA>  (33) 
13.1166

>  <SCORE.INTRA.DIHEDRAL>  (33) 
17.0973

>  <SCORE.INTRA.DIHEDRAL.0>  (33) 
3.78927

>  <SCORE.INTRA.POLAR>  (33) 
0

>  <SCORE.INTRA.POLAR.0>  (33) 
0

>  <SCORE.INTRA.REPUL>  (33) 
0

>  <SCORE.INTRA.REPUL.0>  (33) 
0

>  <SCORE.INTRA.VDW>  (33) 
4.56789

>  <SCORE.INTRA.VDW.0>  (33) 
1.02728

>  <SCORE.INTRA.norm>  (33) 
0.596207

>  <SCORE.RESTR>  (33) 
0.0476057

>  <SCORE.RESTR.CAVITY>  (33) 
0.0476057

>  <SCORE.RESTR.norm>  (33) 
0.00216389

>  <SCORE.SYSTEM>  (33) 
-11.782

>  <SCORE.SYSTEM.CONST>  (33) 
0

>  <SCORE.SYSTEM.DIHEDRAL>  (33) 
3.44501

>  <SCORE.SYSTEM.POLAR>  (33) 
-4.41109

>  <SCORE.SYSTEM.REPUL>  (33) 
0.0755953

>  <SCORE.SYSTEM.VDW>  (33) 
1.11519

>  <SCORE.SYSTEM.norm>  (33) 
-0.535547

>  <SCORE.heavy>  (33) 
22

>  <SCORE.norm>  (33) 
-0.354375

$$$$
denovo_401
     RDKit          3D

 22 23  0  0  0  0  0  0  0  0999 V2000
   15.3135    4.4854    3.2715 C   0  0  0  0  0  0  0  0  0  0  0  0
   14.4145    5.5327    2.9319 O   0  0  0  0  0  0  0  0  0  0  0  0
   13.2268    5.4874    3.7260 C   0  0  0  0  0  0  0  0  0  0  0  0
   12.0810    6.2425    3.0175 C   0  0  2  0  0  0  0  0  0  0  0  0
   11.9559    5.7461    1.5812 C   0  0  0  0  0  0  0  0  0  0  0  0
   10.7604    5.1490    1.1536 C   0  0  0  0  0  0  0  0  0  0  0  0
   10.6251    4.6851   -0.1561 C   0  0  0  0  0  0  0  0  0  0  0  0
   11.6822    4.8110   -1.0542 C   0  0  0  0  0  0  0  0  0  0  0  0
   12.8757    5.4004   -0.6438 C   0  0  0  0  0  0  0  0  0  0  0  0
   13.0134    5.8647    0.6656 C   0  0  0  0  0  0  0  0  0  0  0  0
   12.2484    7.7822    3.0799 C   0  0  2  0  0  0  0  0  0  0  0  0
   11.1575    8.5127    3.8698 C   0  0  0  0  0  0  0  0  0  0  0  0
   11.0855    9.9286    3.2898 C   0  0  0  0  0  0  0  0  0  0  0  0
   12.0165    9.9529    2.0745 C   0  0  2  0  0  0  0  0  0  0  0  0
   11.5372   10.7773    0.8672 C   0  0  0  0  0  0  0  0  0  0  0  0
   11.2697   12.3081    1.0697 C   0  0  0  0  0  0  0  0  0  0  0  0
   10.0860   12.5043    2.0388 C   0  0  0  0  0  0  0  0  0  0  0  0
   12.5378   12.8827    1.7510 C   0  0  0  0  0  0  0  0  0  0  0  0
   11.0016   13.0543   -0.2754 C   0  0  1  0  0  0  0  0  0  0  0  0
   11.9924   12.7515   -1.3999 C   0  0  0  0  0  0  0  0  0  0  0  0
    9.7073   12.7346   -0.7887 O   0  0  0  0  0  0  0  0  0  0  0  0
   12.1627    8.4690    1.7128 C   0  0  0  0  0  0  0  0  0  0  0  0
  1  2  1  0
  2  3  1  0
  4  3  1  6
  4  5  1  0
  5  6  2  0
  6  7  1  0
  7  8  2  0
  8  9  1  0
  9 10  2  0
  4 11  1  0
 11 12  1  1
 12 13  1  0
 13 14  1  0
 14 15  1  6
 15 16  1  0
 16 17  1  0
 16 18  1  0
 16 19  1  0
 19 20  1  6
 19 21  1  0
 14 22  1  0
 10  5  1  0
 22 11  1  0
M  END
>  <CHROM.0>  (34) 
71.25796495,-178.99868984,-177.45625351,66.70911837,-167.06973467,66.29466283
-165.71877827

>  <CHROM.1>  (34) 
-158.51809245,50.68577341,119.12016651,-115.69241517,59.47838400,-65.34211828
-47.50356321,168.37057257,11.95213002,8.50146861,1.44825531,-0.87774168,-1.17444706
0.47149823

>  <Name>  (34) 
denovo_401

>  <RI>  (34) 
1.02415e+09

>  <Rbt.Current_Directory>  (34) 
/tmp/claude-0/-home-user-Rare-cancers/1af35c7f-7dc4-53ce-91d2-1631a2a10a85/scratchpad/smwork/cross/dock_metad-opened_v2

>  <Rbt.Executable>  (34) 
rbdock - v25.07-alpha

>  <Rbt.Library>  (34) 
libRbt.so (25.07, Buildalpha)

>  <Rbt.Parameter_File>  (34) 
/tmp/claude-0/-home-user-Rare-cancers/1af35c7f-7dc4-53ce-91d2-1631a2a10a85/scratchpad/rdroot/share/rDock/data/scripts/dock.prm

>  <Rbt.Receptor>  (34) 
rec.prm

>  <SCORE>  (34) 
-7.5845

>  <SCORE.INTER>  (34) 
-2.75972

>  <SCORE.INTER.CONST>  (34) 
1

>  <SCORE.INTER.POLAR>  (34) 
0

>  <SCORE.INTER.REPUL>  (34) 
0.0115794

>  <SCORE.INTER.ROT>  (34) 
7

>  <SCORE.INTER.VDW>  (34) 
-15.2176

>  <SCORE.INTER.norm>  (34) 
-0.125442

>  <SCORE.INTRA>  (34) 
7.65627

>  <SCORE.INTRA.DIHEDRAL>  (34) 
6.71048

>  <SCORE.INTRA.DIHEDRAL.0>  (34) 
3.78927

>  <SCORE.INTRA.POLAR>  (34) 
0

>  <SCORE.INTRA.POLAR.0>  (34) 
0

>  <SCORE.INTRA.REPUL>  (34) 
0

>  <SCORE.INTRA.REPUL.0>  (34) 
0

>  <SCORE.INTRA.VDW>  (34) 
4.30103

>  <SCORE.INTRA.VDW.0>  (34) 
1.02728

>  <SCORE.INTRA.norm>  (34) 
0.348012

>  <SCORE.RESTR>  (34) 
0.119925

>  <SCORE.RESTR.CAVITY>  (34) 
0.119925

>  <SCORE.RESTR.norm>  (34) 
0.00545112

>  <SCORE.SYSTEM>  (34) 
-12.601

>  <SCORE.SYSTEM.CONST>  (34) 
0

>  <SCORE.SYSTEM.DIHEDRAL>  (34) 
3.01014

>  <SCORE.SYSTEM.POLAR>  (34) 
-4.62315

>  <SCORE.SYSTEM.REPUL>  (34) 
0.00138008

>  <SCORE.SYSTEM.VDW>  (34) 
1.60573

>  <SCORE.SYSTEM.norm>  (34) 
-0.572774

>  <SCORE.heavy>  (34) 
22

>  <SCORE.norm>  (34) 
-0.344752

$$$$
denovo_401
     RDKit          3D

 22 23  0  0  0  0  0  0  0  0999 V2000
   13.8371    4.6377    3.2038 C   0  0  0  0  0  0  0  0  0  0  0  0
   13.7790    5.9773    3.6755 O   0  0  0  0  0  0  0  0  0  0  0  0
   12.4754    6.3113    4.1576 C   0  0  0  0  0  0  0  0  0  0  0  0
   11.6455    6.9760    3.0376 C   0  0  2  0  0  0  0  0  0  0  0  0
   12.1424    6.4915    1.6799 C   0  0  0  0  0  0  0  0  0  0  0  0
   13.3446    6.9944    1.1597 C   0  0  0  0  0  0  0  0  0  0  0  0
   13.8167    6.5667   -0.0824 C   0  0  0  0  0  0  0  0  0  0  0  0
   13.0937    5.6325   -0.8205 C   0  0  0  0  0  0  0  0  0  0  0  0
   11.8979    5.1253   -0.3175 C   0  0  0  0  0  0  0  0  0  0  0  0
   11.4236    5.5518    0.9243 C   0  0  0  0  0  0  0  0  0  0  0  0
   11.6443    8.5233    3.1294 C   0  0  2  0  0  0  0  0  0  0  0  0
   10.6858    9.1013    4.1758 C   0  0  0  0  0  0  0  0  0  0  0  0
   10.3208   10.5076    3.6904 C   0  0  0  0  0  0  0  0  0  0  0  0
   10.9407   10.6664    2.2995 C   0  0  2  0  0  0  0  0  0  0  0  0
   10.1069   11.4467    1.2686 C   0  0  0  0  0  0  0  0  0  0  0  0
   10.7532   12.6984    0.5819 C   0  0  0  0  0  0  0  0  0  0  0  0
    9.8053   13.2398   -0.5076 C   0  0  0  0  0  0  0  0  0  0  0  0
   10.8743   13.7821    1.6834 C   0  0  0  0  0  0  0  0  0  0  0  0
   12.1597   12.3926   -0.0231 C   0  0  1  0  0  0  0  0  0  0  0  0
   13.2289   11.9739    0.9866 C   0  0  0  0  0  0  0  0  0  0  0  0
   12.0852   11.3380   -0.9840 O   0  0  0  0  0  0  0  0  0  0  0  0
   11.1704    9.2180    1.8484 C   0  0  0  0  0  0  0  0  0  0  0  0
  1  2  1  0
  2  3  1  0
  4  3  1  1
  4  5  1  0
  5  6  2  0
  6  7  1  0
  7  8  2  0
  8  9  1  0
  9 10  2  0
  4 11  1  0
 11 12  1  1
 12 13  1  0
 13 14  1  0
 14 15  1  6
 15 16  1  0
 16 17  1  0
 16 18  1  0
 16 19  1  0
 19 20  1  1
 19 21  1  0
 14 22  1  0
 10  5  1  0
 22 11  1  0
M  END
>  <CHROM.0>  (35) 
169.87183274,-59.10252205,-74.17658039,65.94999064,-56.69445912,64.54904001
-162.72683552

>  <CHROM.1>  (35) 
-93.89165770,27.10512124,-75.66950634,-79.10519533,123.69526114,174.40371771
-62.57577781,-57.18962339,11.88351954,8.92855752,1.58931205,0.73707455,-1.20444066
2.16019751

>  <Name>  (35) 
denovo_401

>  <RI>  (35) 
1.02415e+09

>  <Rbt.Current_Directory>  (35) 
/tmp/claude-0/-home-user-Rare-cancers/1af35c7f-7dc4-53ce-91d2-1631a2a10a85/scratchpad/smwork/cross/dock_metad-opened_v2

>  <Rbt.Executable>  (35) 
rbdock - v25.07-alpha

>  <Rbt.Library>  (35) 
libRbt.so (25.07, Buildalpha)

>  <Rbt.Parameter_File>  (35) 
/tmp/claude-0/-home-user-Rare-cancers/1af35c7f-7dc4-53ce-91d2-1631a2a10a85/scratchpad/rdroot/share/rDock/data/scripts/dock.prm

>  <Rbt.Receptor>  (35) 
rec.prm

>  <SCORE>  (35) 
-7.4676

>  <SCORE.INTER>  (35) 
-0.727213

>  <SCORE.INTER.CONST>  (35) 
1

>  <SCORE.INTER.POLAR>  (35) 
0

>  <SCORE.INTER.REPUL>  (35) 
0

>  <SCORE.INTER.ROT>  (35) 
7

>  <SCORE.INTER.VDW>  (35) 
-13.1272

>  <SCORE.INTER.norm>  (35) 
-0.0330551

>  <SCORE.INTRA>  (35) 
9.43514

>  <SCORE.INTRA.DIHEDRAL>  (35) 
12.5771

>  <SCORE.INTRA.DIHEDRAL.0>  (35) 
3.78927

>  <SCORE.INTRA.POLAR>  (35) 
0

>  <SCORE.INTRA.POLAR.0>  (35) 
0

>  <SCORE.INTRA.REPUL>  (35) 
0

>  <SCORE.INTRA.REPUL.0>  (35) 
0

>  <SCORE.INTRA.VDW>  (35) 
3.1466

>  <SCORE.INTRA.VDW.0>  (35) 
1.02728

>  <SCORE.INTRA.norm>  (35) 
0.42887

>  <SCORE.RESTR>  (35) 
0.176409

>  <SCORE.RESTR.CAVITY>  (35) 
0.176409

>  <SCORE.RESTR.norm>  (35) 
0.00801859

>  <SCORE.SYSTEM>  (35) 
-16.3519

>  <SCORE.SYSTEM.CONST>  (35) 
0

>  <SCORE.SYSTEM.DIHEDRAL>  (35) 
3.39241

>  <SCORE.SYSTEM.POLAR>  (35) 
-4.62994

>  <SCORE.SYSTEM.VDW>  (35) 
-2.30631

>  <SCORE.SYSTEM.norm>  (35) 
-0.743269

>  <SCORE.heavy>  (35) 
22

>  <SCORE.norm>  (35) 
-0.339435

$$$$
denovo_401
     RDKit          3D

 22 23  0  0  0  0  0  0  0  0999 V2000
   17.1708    9.3913    3.0618 C   0  0  0  0  0  0  0  0  0  0  0  0
   16.0055    8.5948    3.2301 O   0  0  0  0  0  0  0  0  0  0  0  0
   14.8127    9.3754    3.1244 C   0  0  0  0  0  0  0  0  0  0  0  0
   13.5761    8.5080    3.4460 C   0  0  2  0  0  0  0  0  0  0  0  0
   13.5373    7.3083    2.5056 C   0  0  0  0  0  0  0  0  0  0  0  0
   13.4525    7.5135    1.1202 C   0  0  0  0  0  0  0  0  0  0  0  0
   13.4131    6.4296    0.2413 C   0  0  0  0  0  0  0  0  0  0  0  0
   13.4568    5.1281    0.7352 C   0  0  0  0  0  0  0  0  0  0  0  0
   13.5397    4.9088    2.1083 C   0  0  0  0  0  0  0  0  0  0  0  0
   13.5790    5.9911    2.9892 C   0  0  0  0  0  0  0  0  0  0  0  0
   12.2517    9.3124    3.4049 C   0  0  2  0  0  0  0  0  0  0  0  0
   10.9821    8.4546    3.4048 C   0  0  0  0  0  0  0  0  0  0  0  0
    9.9017    9.2907    2.7118 C   0  0  0  0  0  0  0  0  0  0  0  0
   10.5938   10.5488    2.1805 C   0  0  2  0  0  0  0  0  0  0  0  0
   10.1095   11.0660    0.8149 C   0  0  0  0  0  0  0  0  0  0  0  0
   10.6065   12.4716    0.3320 C   0  0  0  0  0  0  0  0  0  0  0  0
   10.1126   13.5598    1.3070 C   0  0  0  0  0  0  0  0  0  0  0  0
   12.1540   12.4341    0.4110 C   0  0  0  0  0  0  0  0  0  0  0  0
   10.1542   12.8007   -1.1257 C   0  0  1  0  0  0  0  0  0  0  0  0
   10.6085   11.8037   -2.1922 C   0  0  0  0  0  0  0  0  0  0  0  0
    8.7298   12.8607   -1.2182 O   0  0  0  0  0  0  0  0  0  0  0  0
   12.0726   10.1428    2.1296 C   0  0  0  0  0  0  0  0  0  0  0  0
  1  2  1  0
  2  3  1  0
  4  3  1  6
  4  5  1  0
  5  6  2  0
  6  7  1  0
  7  8  2  0
  8  9  1  0
  9 10  2  0
  4 11  1  0
 11 12  1  6
 12 13  1  0
 13 14  1  0
 14 15  1  6
 15 16  1  0
 16 17  1  0
 16 18  1  0
 16 19  1  0
 19 20  1  6
 19 21  1  0
 14 22  1  0
 10  5  1  0
 22 11  1  0
M  END
>  <CHROM.0>  (36) 
-51.51591143,-62.70501348,56.58245857,64.79785473,-167.15334430,-53.81925674
-163.37726496

>  <CHROM.1>  (36) 
-174.57063579,-57.25586167,-60.37747290,166.98040541,170.00880806,-62.46872764
-58.15449975,-45.91653965,12.29283905,9.54637324,1.54998438,-0.80245500,-0.55910752
0.00295527

>  <Name>  (36) 
denovo_401

>  <RI>  (36) 
1.02415e+09

>  <Rbt.Current_Directory>  (36) 
/tmp/claude-0/-home-user-Rare-cancers/1af35c7f-7dc4-53ce-91d2-1631a2a10a85/scratchpad/smwork/cross/dock_metad-opened_v2

>  <Rbt.Executable>  (36) 
rbdock - v25.07-alpha

>  <Rbt.Library>  (36) 
libRbt.so (25.07, Buildalpha)

>  <Rbt.Parameter_File>  (36) 
/tmp/claude-0/-home-user-Rare-cancers/1af35c7f-7dc4-53ce-91d2-1631a2a10a85/scratchpad/rdroot/share/rDock/data/scripts/dock.prm

>  <Rbt.Receptor>  (36) 
rec.prm

>  <SCORE>  (36) 
-6.9573

>  <SCORE.INTER>  (36) 
-4.84196

>  <SCORE.INTER.CONST>  (36) 
1

>  <SCORE.INTER.POLAR>  (36) 
-0.295194

>  <SCORE.INTER.REPUL>  (36) 
0

>  <SCORE.INTER.ROT>  (36) 
7

>  <SCORE.INTER.VDW>  (36) 
-16.2383

>  <SCORE.INTER.norm>  (36) 
-0.220089

>  <SCORE.INTRA>  (36) 
3.81981

>  <SCORE.INTRA.DIHEDRAL>  (36) 
-0.53559

>  <SCORE.INTRA.DIHEDRAL.0>  (36) 
3.78927

>  <SCORE.INTRA.POLAR>  (36) 
0

>  <SCORE.INTRA.POLAR.0>  (36) 
0

>  <SCORE.INTRA.REPUL>  (36) 
0

>  <SCORE.INTRA.REPUL.0>  (36) 
0

>  <SCORE.INTRA.VDW>  (36) 
4.08761

>  <SCORE.INTRA.VDW.0>  (36) 
1.02728

>  <SCORE.INTRA.norm>  (36) 
0.173628

>  <SCORE.RESTR>  (36) 
1.40936

>  <SCORE.RESTR.CAVITY>  (36) 
1.40936

>  <SCORE.RESTR.norm>  (36) 
0.064062

>  <SCORE.SYSTEM>  (36) 
-7.34448

>  <SCORE.SYSTEM.CONST>  (36) 
0

>  <SCORE.SYSTEM.DIHEDRAL>  (36) 
3.00731

>  <SCORE.SYSTEM.POLAR>  (36) 
-4.29066

>  <SCORE.SYSTEM.REPUL>  (36) 
0.745953

>  <SCORE.SYSTEM.VDW>  (36) 
2.01035

>  <SCORE.SYSTEM.norm>  (36) 
-0.33384

>  <SCORE.heavy>  (36) 
22

>  <SCORE.norm>  (36) 
-0.316239

$$$$
denovo_401
     RDKit          3D

 22 23  0  0  0  0  0  0  0  0999 V2000
    9.1666   13.9161   -1.1352 C   0  0  0  0  0  0  0  0  0  0  0  0
    9.9867   12.7967   -0.8275 O   0  0  0  0  0  0  0  0  0  0  0  0
   11.2750   13.1995   -0.3570 C   0  0  0  0  0  0  0  0  0  0  0  0
   12.2843   12.0399   -0.5041 C   0  0  2  0  0  0  0  0  0  0  0  0
   12.3564   11.6102   -1.9653 C   0  0  0  0  0  0  0  0  0  0  0  0
   13.6027   11.5255   -2.6043 C   0  0  0  0  0  0  0  0  0  0  0  0
   13.6916   11.1367   -3.9421 C   0  0  0  0  0  0  0  0  0  0  0  0
   12.5373   10.8290   -4.6581 C   0  0  0  0  0  0  0  0  0  0  0  0
   11.2929   10.9098   -4.0375 C   0  0  0  0  0  0  0  0  0  0  0  0
   11.2014   11.2986   -2.6998 C   0  0  0  0  0  0  0  0  0  0  0  0
   11.9657   10.8450    0.4305 C   0  0  2  0  0  0  0  0  0  0  0  0
   11.7967   11.2155    1.9075 C   0  0  0  0  0  0  0  0  0  0  0  0
   12.1590    9.9601    2.7071 C   0  0  0  0  0  0  0  0  0  0  0  0
   12.6832    8.9339    1.6991 C   0  0  2  0  0  0  0  0  0  0  0  0
   13.8565    8.0569    2.1694 C   0  0  0  0  0  0  0  0  0  0  0  0
   13.7202    6.5007    2.0439 C   0  0  0  0  0  0  0  0  0  0  0  0
   13.7039    6.0997    0.5547 C   0  0  0  0  0  0  0  0  0  0  0  0
   15.0001    5.9014    2.6803 C   0  0  0  0  0  0  0  0  0  0  0  0
   12.4535    5.9480    2.7705 C   0  0  1  0  0  0  0  0  0  0  0  0
   11.1309    6.1642    2.0344 C   0  0  0  0  0  0  0  0  0  0  0  0
   12.5621    4.5403    2.9885 O   0  0  0  0  0  0  0  0  0  0  0  0
   13.0804    9.7954    0.4932 C   0  0  0  0  0  0  0  0  0  0  0  0
  1  2  1  0
  2  3  1  0
  4  3  1  6
  4  5  1  0
  5  6  2  0
  6  7  1  0
  7  8  2  0
  8  9  1  0
  9 10  2  0
  4 11  1  0
 11 12  1  1
 12 13  1  0
 13 14  1  0
 14 15  1  1
 15 16  1  0
 16 17  1  0
 16 18  1  0
 16 19  1  0
 19 20  1  6
 19 21  1  0
 14 22  1  0
 10  5  1  0
 22 11  1  0
M  END
>  <CHROM.0>  (37) 
77.88338077,-57.81568305,57.42849973,-72.90987780,70.57009804,65.08131332
-163.65938921

>  <CHROM.1>  (37) 
-160.13932610,58.06752047,127.97146620,-52.75189160,127.32114291,67.66622132
76.75235866,176.94541563,12.31299012,9.62632662,0.07194315,1.99455503,1.01398872
-1.01951001

>  <Name>  (37) 
denovo_401

>  <RI>  (37) 
1.02415e+09

>  <Rbt.Current_Directory>  (37) 
/tmp/claude-0/-home-user-Rare-cancers/1af35c7f-7dc4-53ce-91d2-1631a2a10a85/scratchpad/smwork/cross/dock_metad-opened_v2

>  <Rbt.Executable>  (37) 
rbdock - v25.07-alpha

>  <Rbt.Library>  (37) 
libRbt.so (25.07, Buildalpha)

>  <Rbt.Parameter_File>  (37) 
/tmp/claude-0/-home-user-Rare-cancers/1af35c7f-7dc4-53ce-91d2-1631a2a10a85/scratchpad/rdroot/share/rDock/data/scripts/dock.prm

>  <Rbt.Receptor>  (37) 
rec.prm

>  <SCORE>  (37) 
-6.3102

>  <SCORE.INTER>  (37) 
-1.93366

>  <SCORE.INTER.CONST>  (37) 
1

>  <SCORE.INTER.POLAR>  (37) 
-0.0150332

>  <SCORE.INTER.REPUL>  (37) 
0.089185

>  <SCORE.INTER.ROT>  (37) 
7

>  <SCORE.INTER.VDW>  (37) 
-14.7285

>  <SCORE.INTER.norm>  (37) 
-0.0878936

>  <SCORE.INTRA>  (37) 
5.34316

>  <SCORE.INTRA.DIHEDRAL>  (37) 
6.53282

>  <SCORE.INTRA.DIHEDRAL.0>  (37) 
3.78927

>  <SCORE.INTRA.POLAR>  (37) 
0

>  <SCORE.INTRA.POLAR.0>  (37) 
0

>  <SCORE.INTRA.REPUL>  (37) 
0

>  <SCORE.INTRA.REPUL.0>  (37) 
0

>  <SCORE.INTRA.VDW>  (37) 
2.07675

>  <SCORE.INTRA.VDW.0>  (37) 
1.02728

>  <SCORE.INTRA.norm>  (37) 
0.242871

>  <SCORE.RESTR>  (37) 
0.0246973

>  <SCORE.RESTR.CAVITY>  (37) 
0.0246973

>  <SCORE.RESTR.norm>  (37) 
0.0011226

>  <SCORE.SYSTEM>  (37) 
-9.74439

>  <SCORE.SYSTEM.CONST>  (37) 
0

>  <SCORE.SYSTEM.DIHEDRAL>  (37) 
4.42242

>  <SCORE.SYSTEM.POLAR>  (37) 
-4.11617

>  <SCORE.SYSTEM.REPUL>  (37) 
0.74481

>  <SCORE.SYSTEM.VDW>  (37) 
-1.68466

>  <SCORE.SYSTEM.norm>  (37) 
-0.442927

>  <SCORE.heavy>  (37) 
22

>  <SCORE.norm>  (37) 
-0.286827

$$$$
denovo_401
     RDKit          3D

 22 23  0  0  0  0  0  0  0  0999 V2000
    8.7275   14.4839   -1.5935 C   0  0  0  0  0  0  0  0  0  0  0  0
    9.9403   13.8652   -1.1851 O   0  0  0  0  0  0  0  0  0  0  0  0
    9.7704   13.1144    0.0194 C   0  0  0  0  0  0  0  0  0  0  0  0
   10.9555   12.1438    0.2157 C   0  0  2  0  0  0  0  0  0  0  0  0
   11.5089   11.7344   -1.1449 C   0  0  0  0  0  0  0  0  0  0  0  0
   10.6272   11.4844   -2.2074 C   0  0  0  0  0  0  0  0  0  0  0  0
   11.1120   11.1058   -3.4605 C   0  0  0  0  0  0  0  0  0  0  0  0
   12.4828   10.9713   -3.6675 C   0  0  0  0  0  0  0  0  0  0  0  0
   13.3702   11.2148   -2.6219 C   0  0  0  0  0  0  0  0  0  0  0  0
   12.8877   11.5932   -1.3677 C   0  0  0  0  0  0  0  0  0  0  0  0
   10.5847   10.9109    1.0790 C   0  0  2  0  0  0  0  0  0  0  0  0
   10.1453   11.2405    2.5093 C   0  0  0  0  0  0  0  0  0  0  0  0
   10.4710   10.0034    3.3521 C   0  0  0  0  0  0  0  0  0  0  0  0
   11.2351    9.0398    2.4401 C   0  0  2  0  0  0  0  0  0  0  0  0
   12.3817    8.2497    3.0941 C   0  0  0  0  0  0  0  0  0  0  0  0
   12.9930    7.0380    2.3105 C   0  0  0  0  0  0  0  0  0  0  0  0
   14.3568    7.4408    1.7136 C   0  0  0  0  0  0  0  0  0  0  0  0
   13.2470    5.9270    3.3610 C   0  0  0  0  0  0  0  0  0  0  0  0
   12.0439    6.5066    1.1903 C   0  0  1  0  0  0  0  0  0  0  0  0
   12.5889    5.3350    0.3729 C   0  0  0  0  0  0  0  0  0  0  0  0
   10.8012    6.0648    1.7394 O   0  0  0  0  0  0  0  0  0  0  0  0
   11.7548    9.9514    1.3206 C   0  0  0  0  0  0  0  0  0  0  0  0
  1  2  1  0
  2  3  1  0
  4  3  1  6
  4  5  1  0
  5  6  2  0
  6  7  1  0
  7  8  2  0
  8  9  1  0
  9 10  2  0
  4 11  1  0
 11 12  1  1
 12 13  1  0
 13 14  1  0
 14 15  1  1
 15 16  1  0
 16 17  1  0
 16 18  1  0
 16 19  1  0
 19 20  1  1
 19 21  1  0
 14 22  1  0
 10  5  1  0
 22 11  1  0
M  END
>  <CHROM.0>  (38) 
71.89192746,-56.79552193,-67.06814731,-71.40849170,-165.40142634,-174.59932463
-67.36133925

>  <CHROM.1>  (38) 
163.73928023,-29.53862866,-39.49267313,-61.62473154,167.01897537,104.00404411
179.17770185,61.52836482,11.52081497,9.93139009,0.38771260,2.05077886,0.97252664
-0.97179424

>  <Name>  (38) 
denovo_401

>  <RI>  (38) 
1.02415e+09

>  <Rbt.Current_Directory>  (38) 
/tmp/claude-0/-home-user-Rare-cancers/1af35c7f-7dc4-53ce-91d2-1631a2a10a85/scratchpad/smwork/cross/dock_metad-opened_v2

>  <Rbt.Executable>  (38) 
rbdock - v25.07-alpha

>  <Rbt.Library>  (38) 
libRbt.so (25.07, Buildalpha)

>  <Rbt.Parameter_File>  (38) 
/tmp/claude-0/-home-user-Rare-cancers/1af35c7f-7dc4-53ce-91d2-1631a2a10a85/scratchpad/rdroot/share/rDock/data/scripts/dock.prm

>  <Rbt.Receptor>  (38) 
rec.prm

>  <SCORE>  (38) 
-6.0227

>  <SCORE.INTER>  (38) 
-9.71807

>  <SCORE.INTER.CONST>  (38) 
1

>  <SCORE.INTER.POLAR>  (38) 
-1.04894

>  <SCORE.INTER.REPUL>  (38) 
0.0868391

>  <SCORE.INTER.ROT>  (38) 
7

>  <SCORE.INTER.VDW>  (38) 
-18.9859

>  <SCORE.INTER.norm>  (38) 
-0.44173

>  <SCORE.INTRA>  (38) 
5.75256

>  <SCORE.INTRA.DIHEDRAL>  (38) 
7.23717

>  <SCORE.INTRA.DIHEDRAL.0>  (38) 
3.78927

>  <SCORE.INTRA.POLAR>  (38) 
0

>  <SCORE.INTRA.POLAR.0>  (38) 
0

>  <SCORE.INTRA.REPUL>  (38) 
0

>  <SCORE.INTRA.REPUL.0>  (38) 
0

>  <SCORE.INTRA.VDW>  (38) 
2.13397

>  <SCORE.INTRA.VDW.0>  (38) 
1.02728

>  <SCORE.INTRA.norm>  (38) 
0.26148

>  <SCORE.RESTR>  (38) 
0.0691851

>  <SCORE.RESTR.CAVITY>  (38) 
0.0691851

>  <SCORE.RESTR.norm>  (38) 
0.00314478

>  <SCORE.SYSTEM>  (38) 
-2.12636

>  <SCORE.SYSTEM.CONST>  (38) 
0

>  <SCORE.SYSTEM.DIHEDRAL>  (38) 
3.18639

>  <SCORE.SYSTEM.POLAR>  (38) 
-2.95509

>  <SCORE.SYSTEM.REPUL>  (38) 
0.385266

>  <SCORE.SYSTEM.VDW>  (38) 
4.40143

>  <SCORE.SYSTEM.norm>  (38) 
-0.0966527

>  <SCORE.heavy>  (38) 
22

>  <SCORE.norm>  (38) 
-0.273758

$$$$
denovo_401
     RDKit          3D

 22 23  0  0  0  0  0  0  0  0999 V2000
    9.7388   10.0508    6.1177 C   0  0  0  0  0  0  0  0  0  0  0  0
    9.1571   10.7874    5.0502 O   0  0  0  0  0  0  0  0  0  0  0  0
    9.5275   10.2537    3.7770 C   0  0  0  0  0  0  0  0  0  0  0  0
   10.7264   11.0361    3.1978 C   0  0  2  0  0  0  0  0  0  0  0  0
   10.3019   11.7413    1.9143 C   0  0  0  0  0  0  0  0  0  0  0  0
   10.5197   13.1203    1.7740 C   0  0  0  0  0  0  0  0  0  0  0  0
   10.1365   13.7864    0.6086 C   0  0  0  0  0  0  0  0  0  0  0  0
    9.5303   13.0840   -0.4302 C   0  0  0  0  0  0  0  0  0  0  0  0
    9.3063   11.7149   -0.3048 C   0  0  0  0  0  0  0  0  0  0  0  0
    9.6884   11.0466    0.8599 C   0  0  0  0  0  0  0  0  0  0  0  0
   11.9746   10.1440    2.9765 C   0  0  2  0  0  0  0  0  0  0  0  0
   13.1018   10.8077    2.1787 C   0  0  0  0  0  0  0  0  0  0  0  0
   13.8777    9.6700    1.5079 C   0  0  0  0  0  0  0  0  0  0  0  0
   13.1015    8.3815    1.7932 C   0  0  2  0  0  0  0  0  0  0  0  0
   13.0541    7.3497    0.6530 C   0  0  0  0  0  0  0  0  0  0  0  0
   12.9056    5.8346    1.0254 C   0  0  0  0  0  0  0  0  0  0  0  0
   11.7722    5.6626    2.0573 C   0  0  0  0  0  0  0  0  0  0  0  0
   12.4743    5.1095   -0.2748 C   0  0  0  0  0  0  0  0  0  0  0  0
   14.2331    5.2160    1.5666 C   0  0  1  0  0  0  0  0  0  0  0  0
   14.8853    5.9758    2.7221 C   0  0  0  0  0  0  0  0  0  0  0  0
   14.0227    3.8830    2.0354 O   0  0  0  0  0  0  0  0  0  0  0  0
   11.6963    8.8871    2.1453 C   0  0  0  0  0  0  0  0  0  0  0  0
  1  2  1  0
  2  3  1  0
  4  3  1  6
  4  5  1  0
  5  6  2  0
  6  7  1  0
  7  8  2  0
  8  9  1  0
  9 10  2  0
  4 11  1  0
 11 12  1  6
 12 13  1  0
 13 14  1  0
 14 15  1  6
 15 16  1  0
 16 17  1  0
 16 18  1  0
 16 19  1  0
 19 20  1  1
 19 21  1  0
 14 22  1  0
 10  5  1  0
 22 11  1  0
M  END
>  <CHROM.0>  (39) 
-46.65253671,-61.05408964,56.16296728,64.51453230,-53.56325881,-177.31804374
-71.36576296

>  <CHROM.1>  (39) 
-96.49603414,-116.12538224,126.80531156,169.66727123,151.84071242,47.64623510
52.68049329,170.20852467,11.66056363,9.13314268,2.00779475,2.78270832,1.03055894
-1.08995958

>  <Name>  (39) 
denovo_401

>  <RI>  (39) 
1.02415e+09

>  <Rbt.Current_Directory>  (39) 
/tmp/claude-0/-home-user-Rare-cancers/1af35c7f-7dc4-53ce-91d2-1631a2a10a85/scratchpad/smwork/cross/dock_metad-opened_v2

>  <Rbt.Executable>  (39) 
rbdock - v25.07-alpha

>  <Rbt.Library>  (39) 
libRbt.so (25.07, Buildalpha)

>  <Rbt.Parameter_File>  (39) 
/tmp/claude-0/-home-user-Rare-cancers/1af35c7f-7dc4-53ce-91d2-1631a2a10a85/scratchpad/rdroot/share/rDock/data/scripts/dock.prm

>  <Rbt.Receptor>  (39) 
rec.prm

>  <SCORE>  (39) 
-5.3982

>  <SCORE.INTER>  (39) 
-3.61114

>  <SCORE.INTER.CONST>  (39) 
1

>  <SCORE.INTER.POLAR>  (39) 
-0.811953

>  <SCORE.INTER.REPUL>  (39) 
0

>  <SCORE.INTER.ROT>  (39) 
7

>  <SCORE.INTER.VDW>  (39) 
-13.2505

>  <SCORE.INTER.norm>  (39) 
-0.164143

>  <SCORE.INTRA>  (39) 
7.62699

>  <SCORE.INTRA.DIHEDRAL>  (39) 
12.1785

>  <SCORE.INTRA.DIHEDRAL.0>  (39) 
3.78927

>  <SCORE.INTRA.POLAR>  (39) 
0

>  <SCORE.INTRA.POLAR.0>  (39) 
0

>  <SCORE.INTRA.REPUL>  (39) 
0

>  <SCORE.INTRA.REPUL.0>  (39) 
0

>  <SCORE.INTRA.VDW>  (39) 
1.53773

>  <SCORE.INTRA.VDW.0>  (39) 
1.02728

>  <SCORE.INTRA.norm>  (39) 
0.346681

>  <SCORE.RESTR>  (39) 
0

>  <SCORE.RESTR.CAVITY>  (39) 
0

>  <SCORE.RESTR.norm>  (39) 
0

>  <SCORE.SYSTEM>  (39) 
-9.41406

>  <SCORE.SYSTEM.CONST>  (39) 
0

>  <SCORE.SYSTEM.DIHEDRAL>  (39) 
2.11005

>  <SCORE.SYSTEM.POLAR>  (39) 
-2.37461

>  <SCORE.SYSTEM.REPUL>  (39) 
0.0208517

>  <SCORE.SYSTEM.VDW>  (39) 
-2.49967

>  <SCORE.SYSTEM.norm>  (39) 
-0.427912

>  <SCORE.heavy>  (39) 
22

>  <SCORE.norm>  (39) 
-0.245374

$$$$
denovo_401
     RDKit          3D

 22 23  0  0  0  0  0  0  0  0999 V2000
   12.1067   15.7804    1.8046 C   0  0  0  0  0  0  0  0  0  0  0  0
   10.9957   14.9342    1.5396 O   0  0  0  0  0  0  0  0  0  0  0  0
   11.2329   13.5966    1.9843 C   0  0  0  0  0  0  0  0  0  0  0  0
   12.3258   12.9317    1.1191 C   0  0  2  0  0  0  0  0  0  0  0  0
   11.7236   12.4889   -0.2099 C   0  0  0  0  0  0  0  0  0  0  0  0
   12.5399   11.8780   -1.1739 C   0  0  0  0  0  0  0  0  0  0  0  0
   12.0099   11.4673   -2.3983 C   0  0  0  0  0  0  0  0  0  0  0  0
   10.6589   11.6626   -2.6753 C   0  0  0  0  0  0  0  0  0  0  0  0
    9.8365   12.2689   -1.7286 C   0  0  0  0  0  0  0  0  0  0  0  0
   10.3643   12.6807   -0.5036 C   0  0  0  0  0  0  0  0  0  0  0  0
   13.0365   11.7611    1.8454 C   0  0  2  0  0  0  0  0  0  0  0  0
   14.1674   11.1051    1.0465 C   0  0  0  0  0  0  0  0  0  0  0  0
   14.2725    9.6651    1.5582 C   0  0  0  0  0  0  0  0  0  0  0  0
   13.1055    9.4575    2.5272 C   0  0  2  0  0  0  0  0  0  0  0  0
   12.4309    8.0752    2.4929 C   0  0  0  0  0  0  0  0  0  0  0  0
   13.2929    6.8361    2.0714 C   0  0  0  0  0  0  0  0  0  0  0  0
   13.4455    6.8080    0.5369 C   0  0  0  0  0  0  0  0  0  0  0  0
   14.7000    7.0599    2.6817 C   0  0  0  0  0  0  0  0  0  0  0  0
   12.6970    5.4871    2.5841 C   0  0  1  0  0  0  0  0  0  0  0  0
   11.3314    5.1140    2.0063 C   0  0  0  0  0  0  0  0  0  0  0  0
   13.5682    4.3956    2.2831 O   0  0  0  0  0  0  0  0  0  0  0  0
   12.1208   10.5674    2.1362 C   0  0  0  0  0  0  0  0  0  0  0  0
  1  2  1  0
  2  3  1  0
  4  3  1  1
  4  5  1  0
  5  6  2  0
  6  7  1  0
  7  8  2  0
  8  9  1  0
  9 10  2  0
  4 11  1  0
 11 12  1  6
 12 13  1  0
 13 14  1  0
 14 15  1  6
 15 16  1  0
 16 17  1  0
 16 18  1  0
 16 19  1  0
 19 20  1  6
 19 21  1  0
 14 22  1  0
 10  5  1  0
 22 11  1  0
M  END
>  <CHROM.0>  (40) 
174.76550832,-57.64728406,-172.59834580,65.92596872,-55.01942643,176.16246995
-161.92641025

>  <CHROM.1>  (40) 
-68.45694165,-78.22474341,178.82326997,-177.70796268,28.70274271,-78.53567318
64.34582988,-46.64834224,12.38647323,10.21014364,1.03332715,-2.09100904,1.11233563
-2.91232129

>  <Name>  (40) 
denovo_401

>  <RI>  (40) 
1.02415e+09

>  <Rbt.Current_Directory>  (40) 
/tmp/claude-0/-home-user-Rare-cancers/1af35c7f-7dc4-53ce-91d2-1631a2a10a85/scratchpad/smwork/cross/dock_metad-opened_v2

>  <Rbt.Executable>  (40) 
rbdock - v25.07-alpha

>  <Rbt.Library>  (40) 
libRbt.so (25.07, Buildalpha)

>  <Rbt.Parameter_File>  (40) 
/tmp/claude-0/-home-user-Rare-cancers/1af35c7f-7dc4-53ce-91d2-1631a2a10a85/scratchpad/rdroot/share/rDock/data/scripts/dock.prm

>  <Rbt.Receptor>  (40) 
rec.prm

>  <SCORE>  (40) 
-5.3074

>  <SCORE.INTER>  (40) 
-4.41271

>  <SCORE.INTER.CONST>  (40) 
1

>  <SCORE.INTER.POLAR>  (40) 
0

>  <SCORE.INTER.REPUL>  (40) 
0.0934682

>  <SCORE.INTER.ROT>  (40) 
7

>  <SCORE.INTER.VDW>  (40) 
-17.28

>  <SCORE.INTER.norm>  (40) 
-0.200578

>  <SCORE.INTRA>  (40) 
12.4145

>  <SCORE.INTRA.DIHEDRAL>  (40) 
4.81309

>  <SCORE.INTRA.DIHEDRAL.0>  (40) 
3.78927

>  <SCORE.INTRA.POLAR>  (40) 
0

>  <SCORE.INTRA.POLAR.0>  (40) 
0

>  <SCORE.INTRA.REPUL>  (40) 
0

>  <SCORE.INTRA.REPUL.0>  (40) 
0

>  <SCORE.INTRA.VDW>  (40) 
10.008

>  <SCORE.INTRA.VDW.0>  (40) 
1.02728

>  <SCORE.INTRA.norm>  (40) 
0.564296

>  <SCORE.RESTR>  (40) 
0.564034

>  <SCORE.RESTR.CAVITY>  (40) 
0.564034

>  <SCORE.RESTR.norm>  (40) 
0.0256379

>  <SCORE.SYSTEM>  (40) 
-13.8732

>  <SCORE.SYSTEM.CONST>  (40) 
0

>  <SCORE.SYSTEM.DIHEDRAL>  (40) 
2.53267

>  <SCORE.SYSTEM.POLAR>  (40) 
-3.7162

>  <SCORE.SYSTEM.VDW>  (40) 
-2.50444

>  <SCORE.SYSTEM.norm>  (40) 
-0.6306

>  <SCORE.heavy>  (40) 
22

>  <SCORE.norm>  (40) 
-0.241244

$$$$
denovo_401
     RDKit          3D

 22 23  0  0  0  0  0  0  0  0999 V2000
   15.1771    4.5006    3.2453 C   0  0  0  0  0  0  0  0  0  0  0  0
   14.3635    5.6318    2.9639 O   0  0  0  0  0  0  0  0  0  0  0  0
   13.1857    5.6495    3.7737 C   0  0  0  0  0  0  0  0  0  0  0  0
   12.0371    6.3663    3.0307 C   0  0  2  0  0  0  0  0  0  0  0  0
   11.9475    5.8391    1.6027 C   0  0  0  0  0  0  0  0  0  0  0  0
   13.0296    6.0157    0.7272 C   0  0  0  0  0  0  0  0  0  0  0  0
   12.9679    5.5435   -0.5849 C   0  0  0  0  0  0  0  0  0  0  0  0
   11.8246    4.8902   -1.0390 C   0  0  0  0  0  0  0  0  0  0  0  0
   10.7419    4.7087   -0.1818 C   0  0  0  0  0  0  0  0  0  0  0  0
   10.8011    5.1804    1.1308 C   0  0  0  0  0  0  0  0  0  0  0  0
   12.1715    7.9101    3.0651 C   0  0  2  0  0  0  0  0  0  0  0  0
   11.2030    8.6154    4.0202 C   0  0  0  0  0  0  0  0  0  0  0  0
   11.0011   10.0263    3.4590 C   0  0  0  0  0  0  0  0  0  0  0  0
   11.7233   10.0695    2.1097 C   0  0  2  0  0  0  0  0  0  0  0  0
   11.0343   10.8756    0.9952 C   0  0  0  0  0  0  0  0  0  0  0  0
   11.6398   12.2656    0.5982 C   0  0  0  0  0  0  0  0  0  0  0  0
   12.2036   12.9633    1.8528 C   0  0  0  0  0  0  0  0  0  0  0  0
   12.8290   11.9649   -0.3494 C   0  0  0  0  0  0  0  0  0  0  0  0
   10.6052   13.1887   -0.1197 C   0  0  1  0  0  0  0  0  0  0  0  0
   10.0297   12.6356   -1.4238 C   0  0  0  0  0  0  0  0  0  0  0  0
    9.4861   13.4580    0.7265 O   0  0  0  0  0  0  0  0  0  0  0  0
   11.8487    8.5883    1.7294 C   0  0  0  0  0  0  0  0  0  0  0  0
  1  2  1  0
  2  3  1  0
  4  3  1  6
  4  5  1  0
  5  6  2  0
  6  7  1  0
  7  8  2  0
  8  9  1  0
  9 10  2  0
  4 11  1  0
 11 12  1  1
 12 13  1  0
 13 14  1  0
 14 15  1  6
 15 16  1  0
 16 17  1  0
 16 18  1  0
 16 19  1  0
 19 20  1  6
 19 21  1  0
 14 22  1  0
 10  5  1  0
 22 11  1  0
M  END
>  <CHROM.0>  (41) 
66.72635618,-57.27973614,-68.05238802,65.06313545,71.18702986,-54.40162051
-162.98637242

>  <CHROM.1>  (41) 
-150.97953867,47.11397807,-62.31620731,-105.38327875,106.22228441,-35.34933725
-60.18985879,69.17650994,11.90980809,8.58783143,1.44165414,-0.82397515,-1.17147664
0.52161602

>  <Name>  (41) 
denovo_401

>  <RI>  (41) 
1.02415e+09

>  <Rbt.Current_Directory>  (41) 
/tmp/claude-0/-home-user-Rare-cancers/1af35c7f-7dc4-53ce-91d2-1631a2a10a85/scratchpad/smwork/cross/dock_metad-opened_v2

>  <Rbt.Executable>  (41) 
rbdock - v25.07-alpha

>  <Rbt.Library>  (41) 
libRbt.so (25.07, Buildalpha)

>  <Rbt.Parameter_File>  (41) 
/tmp/claude-0/-home-user-Rare-cancers/1af35c7f-7dc4-53ce-91d2-1631a2a10a85/scratchpad/rdroot/share/rDock/data/scripts/dock.prm

>  <Rbt.Receptor>  (41) 
rec.prm

>  <SCORE>  (41) 
-4.8133

>  <SCORE.INTER>  (41) 
-2.27205

>  <SCORE.INTER.CONST>  (41) 
1

>  <SCORE.INTER.POLAR>  (41) 
-0.167947

>  <SCORE.INTER.REPUL>  (41) 
0

>  <SCORE.INTER.ROT>  (41) 
7

>  <SCORE.INTER.VDW>  (41) 
-14.101

>  <SCORE.INTER.norm>  (41) 
-0.103275

>  <SCORE.INTRA>  (41) 
9.76248

>  <SCORE.INTRA.DIHEDRAL>  (41) 
14.2868

>  <SCORE.INTRA.DIHEDRAL.0>  (41) 
3.78927

>  <SCORE.INTRA.POLAR>  (41) 
0

>  <SCORE.INTRA.POLAR.0>  (41) 
0

>  <SCORE.INTRA.REPUL>  (41) 
0

>  <SCORE.INTRA.REPUL.0>  (41) 
0

>  <SCORE.INTRA.VDW>  (41) 
2.6191

>  <SCORE.INTRA.VDW.0>  (41) 
1.02728

>  <SCORE.INTRA.norm>  (41) 
0.443749

>  <SCORE.RESTR>  (41) 
0.222008

>  <SCORE.RESTR.CAVITY>  (41) 
0.222008

>  <SCORE.RESTR.norm>  (41) 
0.0100913

>  <SCORE.SYSTEM>  (41) 
-12.5257

>  <SCORE.SYSTEM.CONST>  (41) 
0

>  <SCORE.SYSTEM.DIHEDRAL>  (41) 
3.00162

>  <SCORE.SYSTEM.POLAR>  (41) 
-4.54589

>  <SCORE.SYSTEM.REPUL>  (41) 
0.947501

>  <SCORE.SYSTEM.VDW>  (41) 
-3.30799

>  <SCORE.SYSTEM.norm>  (41) 
-0.569351

>  <SCORE.heavy>  (41) 
22

>  <SCORE.norm>  (41) 
-0.218785

$$$$
denovo_401
     RDKit          3D

 22 23  0  0  0  0  0  0  0  0999 V2000
   14.9889    6.8189    2.3009 C   0  0  0  0  0  0  0  0  0  0  0  0
   15.1684    8.1310    2.8174 O   0  0  0  0  0  0  0  0  0  0  0  0
   14.1175    9.0085    2.4064 C   0  0  0  0  0  0  0  0  0  0  0  0
   12.8532    8.7643    3.2590 C   0  0  2  0  0  0  0  0  0  0  0  0
   12.3108    7.3675    2.9766 C   0  0  0  0  0  0  0  0  0  0  0  0
   11.7785    7.0707    1.7128 C   0  0  0  0  0  0  0  0  0  0  0  0
   11.2742    5.7993    1.4335 C   0  0  0  0  0  0  0  0  0  0  0  0
   11.2943    4.8094    2.4131 C   0  0  0  0  0  0  0  0  0  0  0  0
   11.8184    5.0896    3.6729 C   0  0  0  0  0  0  0  0  0  0  0  0
   12.3231    6.3604    3.9546 C   0  0  0  0  0  0  0  0  0  0  0  0
   11.7698    9.8533    3.0513 C   0  0  2  0  0  0  0  0  0  0  0  0
   10.3336    9.3833    3.3045 C   0  0  0  0  0  0  0  0  0  0  0  0
    9.4332   10.2826    2.4519 C   0  0  0  0  0  0  0  0  0  0  0  0
   10.3617   11.1514    1.5992 C   0  0  2  0  0  0  0  0  0  0  0  0
    9.8956   11.4361    0.1610 C   0  0  0  0  0  0  0  0  0  0  0  0
   10.5091   12.6668   -0.5908 C   0  0  0  0  0  0  0  0  0  0  0  0
    9.3797   13.5001   -1.2300 C   0  0  0  0  0  0  0  0  0  0  0  0
   11.1864   13.5428    0.4937 C   0  0  0  0  0  0  0  0  0  0  0  0
   11.5564   12.2498   -1.6712 C   0  0  1  0  0  0  0  0  0  0  0  0
   12.7140   11.3902   -1.1623 C   0  0  0  0  0  0  0  0  0  0  0  0
   10.9388   11.5041   -2.7216 O   0  0  0  0  0  0  0  0  0  0  0  0
   11.6837   10.3727    1.6122 C   0  0  0  0  0  0  0  0  0  0  0  0
  1  2  1  0
  2  3  1  0
  4  3  1  6
  4  5  1  0
  5  6  2  0
  6  7  1  0
  7  8  2  0
  8  9  1  0
  9 10  2  0
  4 11  1  0
 11 12  1  6
 12 13  1  0
 13 14  1  0
 14 15  1  6
 15 16  1  0
 16 17  1  0
 16 18  1  0
 16 19  1  0
 19 20  1  1
 19 21  1  0
 14 22  1  0
 10  5  1  0
 22 11  1  0
M  END
>  <CHROM.0>  (42) 
74.64766730,-57.43944212,-179.28663746,-64.57859668,-166.96572023,177.71399405
-162.45268645

>  <CHROM.1>  (42) 
78.31898210,-65.75688283,-67.09833729,152.84559791,159.68341331,-131.53623000
-55.76849800,73.73726809,11.73623963,9.46472244,1.39653744,-1.27755834,0.17632471
-0.62317096

>  <Name>  (42) 
denovo_401

>  <RI>  (42) 
1.02415e+09

>  <Rbt.Current_Directory>  (42) 
/tmp/claude-0/-home-user-Rare-cancers/1af35c7f-7dc4-53ce-91d2-1631a2a10a85/scratchpad/smwork/cross/dock_metad-opened_v2

>  <Rbt.Executable>  (42) 
rbdock - v25.07-alpha

>  <Rbt.Library>  (42) 
libRbt.so (25.07, Buildalpha)

>  <Rbt.Parameter_File>  (42) 
/tmp/claude-0/-home-user-Rare-cancers/1af35c7f-7dc4-53ce-91d2-1631a2a10a85/scratchpad/rdroot/share/rDock/data/scripts/dock.prm

>  <Rbt.Receptor>  (42) 
rec.prm

>  <SCORE>  (42) 
-3.6107

>  <SCORE.INTER>  (42) 
-9.49896

>  <SCORE.INTER.CONST>  (42) 
1

>  <SCORE.INTER.POLAR>  (42) 
-0.662632

>  <SCORE.INTER.REPUL>  (42) 
0.310624

>  <SCORE.INTER.ROT>  (42) 
7

>  <SCORE.INTER.VDW>  (42) 
-21.1991

>  <SCORE.INTER.norm>  (42) 
-0.431771

>  <SCORE.INTRA>  (42) 
12.4506

>  <SCORE.INTRA.DIHEDRAL>  (42) 
9.80387

>  <SCORE.INTRA.DIHEDRAL.0>  (42) 
3.78927

>  <SCORE.INTRA.POLAR>  (42) 
0

>  <SCORE.INTRA.POLAR.0>  (42) 
0

>  <SCORE.INTRA.REPUL>  (42) 
0

>  <SCORE.INTRA.REPUL.0>  (42) 
0

>  <SCORE.INTRA.VDW>  (42) 
7.54869

>  <SCORE.INTRA.VDW.0>  (42) 
1.02728

>  <SCORE.INTRA.norm>  (42) 
0.565938

>  <SCORE.RESTR>  (42) 
0.0127846

>  <SCORE.RESTR.CAVITY>  (42) 
0.0127846

>  <SCORE.RESTR.norm>  (42) 
0.000581116

>  <SCORE.SYSTEM>  (42) 
-6.57511

>  <SCORE.SYSTEM.CONST>  (42) 
0

>  <SCORE.SYSTEM.DIHEDRAL>  (42) 
3.5865

>  <SCORE.SYSTEM.POLAR>  (42) 
-4.09929

>  <SCORE.SYSTEM.REPUL>  (42) 
0.286705

>  <SCORE.SYSTEM.VDW>  (42) 
4.13569

>  <SCORE.SYSTEM.norm>  (42) 
-0.298869

>  <SCORE.heavy>  (42) 
22

>  <SCORE.norm>  (42) 
-0.164121

$$$$
denovo_401
     RDKit          3D

 22 23  0  0  0  0  0  0  0  0999 V2000
   11.8780    4.8651    3.9788 C   0  0  0  0  0  0  0  0  0  0  0  0
   12.4992    6.0489    4.4616 O   0  0  0  0  0  0  0  0  0  0  0  0
   13.3443    6.6425    3.4734 C   0  0  0  0  0  0  0  0  0  0  0  0
   12.4938    7.3781    2.4148 C   0  0  2  0  0  0  0  0  0  0  0  0
   12.1548    6.4195    1.2785 C   0  0  0  0  0  0  0  0  0  0  0  0
   13.0862    6.2011    0.2520 C   0  0  0  0  0  0  0  0  0  0  0  0
   12.7955    5.3298   -0.7992 C   0  0  0  0  0  0  0  0  0  0  0  0
   11.5711    4.6671   -0.8388 C   0  0  0  0  0  0  0  0  0  0  0  0
   10.6360    4.8750    0.1724 C   0  0  0  0  0  0  0  0  0  0  0  0
   10.9243    5.7461    1.2246 C   0  0  0  0  0  0  0  0  0  0  0  0
   13.1720    8.6703    1.8924 C   0  0  2  0  0  0  0  0  0  0  0  0
   14.4069    9.1102    2.6857 C   0  0  0  0  0  0  0  0  0  0  0  0
   14.5170   10.6266    2.4987 C   0  0  0  0  0  0  0  0  0  0  0  0
   13.2641   11.0669    1.7369 C   0  0  2  0  0  0  0  0  0  0  0  0
   12.6547   12.4168    2.1531 C   0  0  0  0  0  0  0  0  0  0  0  0
   11.3395   12.8903    1.4445 C   0  0  0  0  0  0  0  0  0  0  0  0
   10.1233   12.1950    2.0896 C   0  0  0  0  0  0  0  0  0  0  0  0
   11.2190   14.4097    1.7261 C   0  0  0  0  0  0  0  0  0  0  0  0
   11.3604   12.6327   -0.0953 C   0  0  1  0  0  0  0  0  0  0  0  0
   12.5831   13.1791   -0.8332 C   0  0  0  0  0  0  0  0  0  0  0  0
   11.3159   11.2335   -0.3807 O   0  0  0  0  0  0  0  0  0  0  0  0
   12.2810    9.9140    1.9787 C   0  0  0  0  0  0  0  0  0  0  0  0
  1  2  1  0
  2  3  1  0
  4  3  1  1
  4  5  1  0
  5  6  2  0
  6  7  1  0
  7  8  2  0
  8  9  1  0
  9 10  2  0
  4 11  1  0
 11 12  1  1
 12 13  1  0
 13 14  1  0
 14 15  1  1
 15 16  1  0
 16 17  1  0
 16 18  1  0
 16 19  1  0
 19 20  1  1
 19 21  1  0
 14 22  1  0
 10  5  1  0
 22 11  1  0
M  END
>  <CHROM.0>  (43) 
66.89139548,-60.09329868,178.44074314,-70.55497263,-166.66108989,65.22169341
-161.75182449

>  <CHROM.1>  (43) 
76.42701390,-90.46805374,-82.72363094,-10.57896444,-177.66728561,80.98083393
-52.36396853,66.89412670,12.24434707,9.00110960,1.50931855,-1.46432984,-1.20082692
0.01892335

>  <Name>  (43) 
denovo_401

>  <RI>  (43) 
1.02415e+09

>  <Rbt.Current_Directory>  (43) 
/tmp/claude-0/-home-user-Rare-cancers/1af35c7f-7dc4-53ce-91d2-1631a2a10a85/scratchpad/smwork/cross/dock_metad-opened_v2

>  <Rbt.Executable>  (43) 
rbdock - v25.07-alpha

>  <Rbt.Library>  (43) 
libRbt.so (25.07, Buildalpha)

>  <Rbt.Parameter_File>  (43) 
/tmp/claude-0/-home-user-Rare-cancers/1af35c7f-7dc4-53ce-91d2-1631a2a10a85/scratchpad/rdroot/share/rDock/data/scripts/dock.prm

>  <Rbt.Receptor>  (43) 
rec.prm

>  <SCORE>  (43) 
-2.9246

>  <SCORE.INTER>  (43) 
-3.00571

>  <SCORE.INTER.CONST>  (43) 
1

>  <SCORE.INTER.POLAR>  (43) 
0

>  <SCORE.INTER.REPUL>  (43) 
0

>  <SCORE.INTER.ROT>  (43) 
7

>  <SCORE.INTER.VDW>  (43) 
-15.4057

>  <SCORE.INTER.norm>  (43) 
-0.136623

>  <SCORE.INTRA>  (43) 
8.41483

>  <SCORE.INTRA.DIHEDRAL>  (43) 
8.41085

>  <SCORE.INTRA.DIHEDRAL.0>  (43) 
3.78927

>  <SCORE.INTRA.POLAR>  (43) 
0

>  <SCORE.INTRA.POLAR.0>  (43) 
0

>  <SCORE.INTRA.REPUL>  (43) 
0

>  <SCORE.INTRA.REPUL.0>  (43) 
0

>  <SCORE.INTRA.VDW>  (43) 
4.2094

>  <SCORE.INTRA.VDW.0>  (43) 
1.02728

>  <SCORE.INTRA.norm>  (43) 
0.382492

>  <SCORE.RESTR>  (43) 
0.690038

>  <SCORE.RESTR.CAVITY>  (43) 
0.690038

>  <SCORE.RESTR.norm>  (43) 
0.0313654

>  <SCORE.SYSTEM>  (43) 
-9.02373

>  <SCORE.SYSTEM.CONST>  (43) 
0

>  <SCORE.SYSTEM.DIHEDRAL>  (43) 
3.47666

>  <SCORE.SYSTEM.POLAR>  (43) 
-4.90898

>  <SCORE.SYSTEM.REPUL>  (43) 
0.370328

>  <SCORE.SYSTEM.VDW>  (43) 
4.07684

>  <SCORE.SYSTEM.norm>  (43) 
-0.41017

>  <SCORE.heavy>  (43) 
22

>  <SCORE.norm>  (43) 
-0.132935

$$$$
denovo_401
     RDKit          3D

 22 23  0  0  0  0  0  0  0  0999 V2000
    9.1071   14.0293   -1.2580 C   0  0  0  0  0  0  0  0  0  0  0  0
   10.0036   12.9929   -0.8803 O   0  0  0  0  0  0  0  0  0  0  0  0
   11.3288   13.4890   -0.6774 C   0  0  0  0  0  0  0  0  0  0  0  0
   12.3444   12.3259   -0.7015 C   0  0  2  0  0  0  0  0  0  0  0  0
   12.3596   11.6920   -2.0882 C   0  0  0  0  0  0  0  0  0  0  0  0
   13.5771   11.5358   -2.7679 C   0  0  0  0  0  0  0  0  0  0  0  0
   13.6137   10.9604   -4.0392 C   0  0  0  0  0  0  0  0  0  0  0  0
   12.4351   10.5353   -4.6476 C   0  0  0  0  0  0  0  0  0  0  0  0
   11.2188   10.6850   -3.9857 C   0  0  0  0  0  0  0  0  0  0  0  0
   11.1796   11.2604   -2.7143 C   0  0  0  0  0  0  0  0  0  0  0  0
   12.0797   11.2751    0.4069 C   0  0  2  0  0  0  0  0  0  0  0  0
   12.4489   11.7314    1.8222 C   0  0  0  0  0  0  0  0  0  0  0  0
   12.7632   10.4580    2.6134 C   0  0  0  0  0  0  0  0  0  0  0  0
   12.7280    9.2997    1.6128 C   0  0  2  0  0  0  0  0  0  0  0  0
   13.7759    8.1921    1.8177 C   0  0  0  0  0  0  0  0  0  0  0  0
   13.2778    6.7596    2.2128 C   0  0  0  0  0  0  0  0  0  0  0  0
   14.4884    5.8222    2.3986 C   0  0  0  0  0  0  0  0  0  0  0  0
   12.5802    6.9081    3.5889 C   0  0  0  0  0  0  0  0  0  0  0  0
   12.2809    6.1614    1.1706 C   0  0  1  0  0  0  0  0  0  0  0  0
   12.9147    5.6597   -0.1273 C   0  0  0  0  0  0  0  0  0  0  0  0
   11.5698    5.0514    1.7212 O   0  0  0  0  0  0  0  0  0  0  0  0
   12.9130    9.9977    0.2590 C   0  0  0  0  0  0  0  0  0  0  0  0
  1  2  1  0
  2  3  1  0
  4  3  1  6
  4  5  1  0
  5  6  2  0
  6  7  1  0
  7  8  2  0
  8  9  1  0
  9 10  2  0
  4 11  1  0
 11 12  1  1
 12 13  1  0
 13 14  1  0
 14 15  1  1
 15 16  1  0
 16 17  1  0
 16 18  1  0
 16 19  1  0
 19 20  1  6
 19 21  1  0
 14 22  1  0
 10  5  1  0
 22 11  1  0
M  END
>  <CHROM.0>  (44) 
-48.59804028,-57.95930293,-73.23688855,179.26382075,-166.15127245,-59.45322902
-162.59975464

>  <CHROM.1>  (44) 
-162.60025151,64.57425933,127.34293468,-73.21985388,114.23779896,-178.65984718
75.39605235,67.10116157,12.28421220,9.79743713,-0.11665394,2.33247553,1.26312585
-1.36252219

>  <Name>  (44) 
denovo_401

>  <RI>  (44) 
1.02415e+09

>  <Rbt.Current_Directory>  (44) 
/tmp/claude-0/-home-user-Rare-cancers/1af35c7f-7dc4-53ce-91d2-1631a2a10a85/scratchpad/smwork/cross/dock_metad-opened_v2

>  <Rbt.Executable>  (44) 
rbdock - v25.07-alpha

>  <Rbt.Library>  (44) 
libRbt.so (25.07, Buildalpha)

>  <Rbt.Parameter_File>  (44) 
/tmp/claude-0/-home-user-Rare-cancers/1af35c7f-7dc4-53ce-91d2-1631a2a10a85/scratchpad/rdroot/share/rDock/data/scripts/dock.prm

>  <Rbt.Receptor>  (44) 
rec.prm

>  <SCORE>  (44) 
-2.8878

>  <SCORE.INTER>  (44) 
-3.69948

>  <SCORE.INTER.CONST>  (44) 
1

>  <SCORE.INTER.POLAR>  (44) 
-0.918808

>  <SCORE.INTER.REPUL>  (44) 
0.471669

>  <SCORE.INTER.ROT>  (44) 
7

>  <SCORE.INTER.VDW>  (44) 
-15.3339

>  <SCORE.INTER.norm>  (44) 
-0.168158

>  <SCORE.INTRA>  (44) 
4.68217

>  <SCORE.INTRA.DIHEDRAL>  (44) 
6.62482

>  <SCORE.INTRA.DIHEDRAL.0>  (44) 
3.78927

>  <SCORE.INTRA.POLAR>  (44) 
0

>  <SCORE.INTRA.POLAR.0>  (44) 
0

>  <SCORE.INTRA.REPUL>  (44) 
0

>  <SCORE.INTRA.REPUL.0>  (44) 
0

>  <SCORE.INTRA.VDW>  (44) 
1.36976

>  <SCORE.INTRA.VDW.0>  (44) 
1.02728

>  <SCORE.INTRA.norm>  (44) 
0.212826

>  <SCORE.RESTR>  (44) 
0.282642

>  <SCORE.RESTR.CAVITY>  (44) 
0.282642

>  <SCORE.RESTR.norm>  (44) 
0.0128474

>  <SCORE.SYSTEM>  (44) 
-4.15315

>  <SCORE.SYSTEM.CONST>  (44) 
0

>  <SCORE.SYSTEM.DIHEDRAL>  (44) 
3.96803

>  <SCORE.SYSTEM.POLAR>  (44) 
-3.53328

>  <SCORE.SYSTEM.REPUL>  (44) 
0.730292

>  <SCORE.SYSTEM.VDW>  (44) 
2.22451

>  <SCORE.SYSTEM.norm>  (44) 
-0.18878

>  <SCORE.heavy>  (44) 
22

>  <SCORE.norm>  (44) 
-0.131265

$$$$
denovo_401
     RDKit          3D

 22 23  0  0  0  0  0  0  0  0999 V2000
    9.4317   10.1040    2.2064 C   0  0  0  0  0  0  0  0  0  0  0  0
   10.2077   10.8463    3.1377 O   0  0  0  0  0  0  0  0  0  0  0  0
   10.4942   12.1615    2.6566 C   0  0  0  0  0  0  0  0  0  0  0  0
   11.8269   12.1666    1.8764 C   0  0  2  0  0  0  0  0  0  0  0  0
   11.5463   11.9884    0.3883 C   0  0  0  0  0  0  0  0  0  0  0  0
   12.6050   11.7149   -0.4910 C   0  0  0  0  0  0  0  0  0  0  0  0
   12.3710   11.5507   -1.8574 C   0  0  0  0  0  0  0  0  0  0  0  0
   11.0775   11.6588   -2.3624 C   0  0  0  0  0  0  0  0  0  0  0  0
   10.0166   11.9313   -1.5019 C   0  0  0  0  0  0  0  0  0  0  0  0
   10.2481   12.0962   -0.1351 C   0  0  0  0  0  0  0  0  0  0  0  0
   12.8334   11.1108    2.4010 C   0  0  2  0  0  0  0  0  0  0  0  0
   14.3013   11.4129    2.0825 C   0  0  0  0  0  0  0  0  0  0  0  0
   15.0182   10.0596    2.0476 C   0  0  0  0  0  0  0  0  0  0  0  0
   13.9357    8.9858    2.1870 C   0  0  2  0  0  0  0  0  0  0  0  0
   14.1350    7.7074    1.3547 C   0  0  0  0  0  0  0  0  0  0  0  0
   13.6381    6.3458    1.9506 C   0  0  0  0  0  0  0  0  0  0  0  0
   13.2025    5.4070    0.8071 C   0  0  0  0  0  0  0  0  0  0  0  0
   14.8656    5.7042    2.6464 C   0  0  0  0  0  0  0  0  0  0  0  0
   12.4767    6.5277    2.9781 C   0  0  1  0  0  0  0  0  0  0  0  0
   11.1886    7.1244    2.4100 C   0  0  0  0  0  0  0  0  0  0  0  0
   12.1113    5.2771    3.5642 O   0  0  0  0  0  0  0  0  0  0  0  0
   12.6536    9.7226    1.7776 C   0  0  0  0  0  0  0  0  0  0  0  0
  1  2  1  0
  2  3  1  0
  4  3  1  1
  4  5  1  0
  5  6  2  0
  6  7  1  0
  7  8  2  0
  8  9  1  0
  9 10  2  0
  4 11  1  0
 11 12  1  6
 12 13  1  0
 13 14  1  0
 14 15  1  6
 15 16  1  0
 16 17  1  0
 16 18  1  0
 16 19  1  0
 19 20  1  6
 19 21  1  0
 14 22  1  0
 10  5  1  0
 22 11  1  0
M  END
>  <CHROM.0>  (45) 
66.40937220,55.53097656,-72.58249047,-73.15326191,-58.58506497,65.85822634
-162.39078466

>  <CHROM.1>  (45) 
-90.91845490,94.44634649,-168.26964038,-156.93480777,146.48733632,149.03090198
63.07341355,67.14154997,12.27331738,9.51821991,1.44584156,1.97114191,0.54358560
-0.61544920

>  <Name>  (45) 
denovo_401

>  <RI>  (45) 
1.02415e+09

>  <Rbt.Current_Directory>  (45) 
/tmp/claude-0/-home-user-Rare-cancers/1af35c7f-7dc4-53ce-91d2-1631a2a10a85/scratchpad/smwork/cross/dock_metad-opened_v2

>  <Rbt.Executable>  (45) 
rbdock - v25.07-alpha

>  <Rbt.Library>  (45) 
libRbt.so (25.07, Buildalpha)

>  <Rbt.Parameter_File>  (45) 
/tmp/claude-0/-home-user-Rare-cancers/1af35c7f-7dc4-53ce-91d2-1631a2a10a85/scratchpad/rdroot/share/rDock/data/scripts/dock.prm

>  <Rbt.Receptor>  (45) 
rec.prm

>  <SCORE>  (45) 
-2.8641

>  <SCORE.INTER>  (45) 
-8.5496

>  <SCORE.INTER.CONST>  (45) 
1

>  <SCORE.INTER.POLAR>  (45) 
0

>  <SCORE.INTER.REPUL>  (45) 
0

>  <SCORE.INTER.ROT>  (45) 
7

>  <SCORE.INTER.VDW>  (45) 
-20.9496

>  <SCORE.INTER.norm>  (45) 
-0.388618

>  <SCORE.INTRA>  (45) 
11.4123

>  <SCORE.INTRA.DIHEDRAL>  (45) 
14.2288

>  <SCORE.INTRA.DIHEDRAL.0>  (45) 
3.78927

>  <SCORE.INTRA.POLAR>  (45) 
0

>  <SCORE.INTRA.POLAR.0>  (45) 
0

>  <SCORE.INTRA.REPUL>  (45) 
0

>  <SCORE.INTRA.REPUL.0>  (45) 
0

>  <SCORE.INTRA.VDW>  (45) 
4.29789

>  <SCORE.INTRA.VDW.0>  (45) 
1.02728

>  <SCORE.INTRA.norm>  (45) 
0.51874

>  <SCORE.RESTR>  (45) 
0.481069

>  <SCORE.RESTR.CAVITY>  (45) 
0.481069

>  <SCORE.RESTR.norm>  (45) 
0.0218668

>  <SCORE.SYSTEM>  (45) 
-6.20779

>  <SCORE.SYSTEM.CONST>  (45) 
0

>  <SCORE.SYSTEM.DIHEDRAL>  (45) 
3.72455

>  <SCORE.SYSTEM.POLAR>  (45) 
-3.20937

>  <SCORE.SYSTEM.REPUL>  (45) 
0.57233

>  <SCORE.SYSTEM.VDW>  (45) 
-0.0198543

>  <SCORE.SYSTEM.norm>  (45) 
-0.282172

>  <SCORE.heavy>  (45) 
22

>  <SCORE.norm>  (45) 
-0.130184

$$$$
denovo_401
     RDKit          3D

 22 23  0  0  0  0  0  0  0  0999 V2000
   10.7004    4.9718    0.0504 C   0  0  0  0  0  0  0  0  0  0  0  0
   11.4409    5.7487    0.9823 O   0  0  0  0  0  0  0  0  0  0  0  0
   12.3411    6.6443    0.3258 C   0  0  0  0  0  0  0  0  0  0  0  0
   13.2025    7.3937    1.3657 C   0  0  2  0  0  0  0  0  0  0  0  0
   13.7644    6.3975    2.3741 C   0  0  0  0  0  0  0  0  0  0  0  0
   12.9421    5.9090    3.4009 C   0  0  0  0  0  0  0  0  0  0  0  0
   13.4367    4.9985    4.3363 C   0  0  0  0  0  0  0  0  0  0  0  0
   14.7582    4.5657    4.2586 C   0  0  0  0  0  0  0  0  0  0  0  0
   15.5868    5.0429    3.2457 C   0  0  0  0  0  0  0  0  0  0  0  0
   15.0946    5.9537    2.3092 C   0  0  0  0  0  0  0  0  0  0  0  0
   12.4344    8.5451    2.0634 C   0  0  2  0  0  0  0  0  0  0  0  0
   11.1420    8.1178    2.7668 C   0  0  0  0  0  0  0  0  0  0  0  0
   10.2374    9.3539    2.7865 C   0  0  0  0  0  0  0  0  0  0  0  0
   10.9466   10.4299    1.9598 C   0  0  2  0  0  0  0  0  0  0  0  0
   10.0452   11.3229    1.0898 C   0  0  0  0  0  0  0  0  0  0  0  0
   10.6890   12.5612    0.3769 C   0  0  0  0  0  0  0  0  0  0  0  0
   11.7291   12.0824   -0.6563 C   0  0  0  0  0  0  0  0  0  0  0  0
    9.5420   13.2599   -0.3968 C   0  0  0  0  0  0  0  0  0  0  0  0
   11.3413   13.5615    1.3828 C   0  0  1  0  0  0  0  0  0  0  0  0
   12.6062   13.0576    2.0787 C   0  0  0  0  0  0  0  0  0  0  0  0
   11.7044   14.7795    0.7304 O   0  0  0  0  0  0  0  0  0  0  0  0
   11.9283    9.6234    1.0994 C   0  0  0  0  0  0  0  0  0  0  0  0
  1  2  1  0
  2  3  1  0
  4  3  1  6
  4  5  1  0
  5  6  2  0
  6  7  1  0
  7  8  2  0
  8  9  1  0
  9 10  2  0
  4 11  1  0
 11 12  1  6
 12 13  1  0
 13 14  1  0
 14 15  1  6
 15 16  1  0
 16 17  1  0
 16 18  1  0
 16 19  1  0
 19 20  1  6
 19 21  1  0
 14 22  1  0
 10  5  1  0
 22 11  1  0
M  END
>  <CHROM.0>  (46) 
69.52228938,-58.06088660,-67.46172006,66.80441453,-55.35227461,67.40303271
-162.82225878

>  <CHROM.1>  (46) 
-175.74416444,47.58396882,-78.12299426,56.83307711,171.77736353,64.52472518
69.50357573,-56.48092941,12.10871022,8.93169676,1.66332157,1.17384452,0.65641366
3.13440365

>  <Name>  (46) 
denovo_401

>  <RI>  (46) 
1.02415e+09

>  <Rbt.Current_Directory>  (46) 
/tmp/claude-0/-home-user-Rare-cancers/1af35c7f-7dc4-53ce-91d2-1631a2a10a85/scratchpad/smwork/cross/dock_metad-opened_v2

>  <Rbt.Executable>  (46) 
rbdock - v25.07-alpha

>  <Rbt.Library>  (46) 
libRbt.so (25.07, Buildalpha)

>  <Rbt.Parameter_File>  (46) 
/tmp/claude-0/-home-user-Rare-cancers/1af35c7f-7dc4-53ce-91d2-1631a2a10a85/scratchpad/rdroot/share/rDock/data/scripts/dock.prm

>  <Rbt.Receptor>  (46) 
rec.prm

>  <SCORE>  (46) 
-2.7574

>  <SCORE.INTER>  (46) 
13.5895

>  <SCORE.INTER.CONST>  (46) 
1

>  <SCORE.INTER.POLAR>  (46) 
0

>  <SCORE.INTER.REPUL>  (46) 
0

>  <SCORE.INTER.ROT>  (46) 
7

>  <SCORE.INTER.VDW>  (46) 
1.18952

>  <SCORE.INTER.norm>  (46) 
0.617706

>  <SCORE.INTRA>  (46) 
2.88694

>  <SCORE.INTRA.DIHEDRAL>  (46) 
-1.5277

>  <SCORE.INTRA.DIHEDRAL.0>  (46) 
3.78927

>  <SCORE.INTRA.POLAR>  (46) 
0

>  <SCORE.INTRA.POLAR.0>  (46) 
0

>  <SCORE.INTRA.REPUL>  (46) 
0

>  <SCORE.INTRA.REPUL.0>  (46) 
0

>  <SCORE.INTRA.VDW>  (46) 
3.65079

>  <SCORE.INTRA.VDW.0>  (46) 
1.02728

>  <SCORE.INTRA.norm>  (46) 
0.131225

>  <SCORE.RESTR>  (46) 
0.32122

>  <SCORE.RESTR.CAVITY>  (46) 
0.32122

>  <SCORE.RESTR.norm>  (46) 
0.0146009

>  <SCORE.SYSTEM>  (46) 
-19.5551

>  <SCORE.SYSTEM.CONST>  (46) 
0

>  <SCORE.SYSTEM.DIHEDRAL>  (46) 
2.92877

>  <SCORE.SYSTEM.POLAR>  (46) 
-5.29626

>  <SCORE.SYSTEM.VDW>  (46) 
-3.01221

>  <SCORE.SYSTEM.norm>  (46) 
-0.88887

>  <SCORE.heavy>  (46) 
22

>  <SCORE.norm>  (46) 
-0.125338

$$$$
denovo_401
     RDKit          3D

 22 23  0  0  0  0  0  0  0  0999 V2000
   14.5937    7.1006    1.4545 C   0  0  0  0  0  0  0  0  0  0  0  0
   14.1351    8.4221    1.7072 O   0  0  0  0  0  0  0  0  0  0  0  0
   14.1320    8.7216    3.1049 C   0  0  0  0  0  0  0  0  0  0  0  0
   12.7193    8.5130    3.6930 C   0  0  2  0  0  0  0  0  0  0  0  0
   12.1986    7.1373    3.2910 C   0  0  0  0  0  0  0  0  0  0  0  0
   12.3518    6.0526    4.1677 C   0  0  0  0  0  0  0  0  0  0  0  0
   11.8850    4.7841    3.8188 C   0  0  0  0  0  0  0  0  0  0  0  0
   11.2608    4.5832    2.5900 C   0  0  0  0  0  0  0  0  0  0  0  0
   11.1028    5.6502    1.7087 C   0  0  0  0  0  0  0  0  0  0  0  0
   11.5690    6.9197    2.0553 C   0  0  0  0  0  0  0  0  0  0  0  0
   11.7313    9.6392    3.2951 C   0  0  2  0  0  0  0  0  0  0  0  0
   10.2508    9.2701    3.4348 C   0  0  0  0  0  0  0  0  0  0  0  0
    9.4956   10.1456    2.4300 C   0  0  0  0  0  0  0  0  0  0  0  0
   10.5551   10.8910    1.6140 C   0  0  2  0  0  0  0  0  0  0  0  0
   10.2501   11.0839    0.1185 C   0  0  0  0  0  0  0  0  0  0  0  0
   11.1318   12.0902   -0.6976 C   0  0  0  0  0  0  0  0  0  0  0  0
   12.5681   11.5415   -0.8190 C   0  0  0  0  0  0  0  0  0  0  0  0
   10.5240   12.1414   -2.1225 C   0  0  0  0  0  0  0  0  0  0  0  0
   11.1465   13.5206   -0.0717 C   0  0  1  0  0  0  0  0  0  0  0  0
    9.7765   14.1826    0.0787 C   0  0  0  0  0  0  0  0  0  0  0  0
   11.7249   13.5017    1.2344 O   0  0  0  0  0  0  0  0  0  0  0  0
   11.8184   10.0448    1.8200 C   0  0  0  0  0  0  0  0  0  0  0  0
  1  2  1  0
  2  3  1  0
  4  3  1  6
  4  5  1  0
  5  6  2  0
  6  7  1  0
  7  8  2  0
  8  9  1  0
  9 10  2  0
  4 11  1  0
 11 12  1  6
 12 13  1  0
 13 14  1  0
 14 15  1  6
 15 16  1  0
 16 17  1  0
 16 18  1  0
 16 19  1  0
 19 20  1  1
 19 21  1  0
 14 22  1  0
 10  5  1  0
 22 11  1  0
M  END
>  <CHROM.0>  (47) 
65.42481060,177.70278593,59.22702223,65.69863612,71.67070047,-53.56399801
-68.46758768

>  <CHROM.1>  (47) 
-97.20749735,50.58034058,95.40611828,160.45039628,167.13536624,67.83622782
-58.01952954,66.53023404,11.70296388,9.46136285,1.67159474,-1.36295682,0.27183087
-0.50602011

>  <Name>  (47) 
denovo_401

>  <RI>  (47) 
1.02415e+09

>  <Rbt.Current_Directory>  (47) 
/tmp/claude-0/-home-user-Rare-cancers/1af35c7f-7dc4-53ce-91d2-1631a2a10a85/scratchpad/smwork/cross/dock_metad-opened_v2

>  <Rbt.Executable>  (47) 
rbdock - v25.07-alpha

>  <Rbt.Library>  (47) 
libRbt.so (25.07, Buildalpha)

>  <Rbt.Parameter_File>  (47) 
/tmp/claude-0/-home-user-Rare-cancers/1af35c7f-7dc4-53ce-91d2-1631a2a10a85/scratchpad/rdroot/share/rDock/data/scripts/dock.prm

>  <Rbt.Receptor>  (47) 
rec.prm

>  <SCORE>  (47) 
-2.3795

>  <SCORE.INTER>  (47) 
-1.55829

>  <SCORE.INTER.CONST>  (47) 
1

>  <SCORE.INTER.POLAR>  (47) 
0

>  <SCORE.INTER.REPUL>  (47) 
0.00746582

>  <SCORE.INTER.ROT>  (47) 
7

>  <SCORE.INTER.VDW>  (47) 
-13.9956

>  <SCORE.INTER.norm>  (47) 
-0.0708312

>  <SCORE.INTRA>  (47) 
5.14483

>  <SCORE.INTRA.DIHEDRAL>  (47) 
4.85022

>  <SCORE.INTRA.DIHEDRAL.0>  (47) 
3.78927

>  <SCORE.INTRA.POLAR>  (47) 
0

>  <SCORE.INTRA.POLAR.0>  (47) 
0

>  <SCORE.INTRA.REPUL>  (47) 
0

>  <SCORE.INTRA.REPUL.0>  (47) 
0

>  <SCORE.INTRA.VDW>  (47) 
2.71972

>  <SCORE.INTRA.VDW.0>  (47) 
1.02728

>  <SCORE.INTRA.norm>  (47) 
0.233856

>  <SCORE.RESTR>  (47) 
0.0205087

>  <SCORE.RESTR.CAVITY>  (47) 
0.0205087

>  <SCORE.RESTR.norm>  (47) 
0.000932214

>  <SCORE.SYSTEM>  (47) 
-5.98652

>  <SCORE.SYSTEM.CONST>  (47) 
0

>  <SCORE.SYSTEM.DIHEDRAL>  (47) 
1.74496

>  <SCORE.SYSTEM.POLAR>  (47) 
-2.02614

>  <SCORE.SYSTEM.REPUL>  (47) 
0.393292

>  <SCORE.SYSTEM.VDW>  (47) 
-1.93658

>  <SCORE.SYSTEM.norm>  (47) 
-0.272115

>  <SCORE.heavy>  (47) 
22

>  <SCORE.norm>  (47) 
-0.108158

$$$$
denovo_401
     RDKit          3D

 22 23  0  0  0  0  0  0  0  0999 V2000
   15.0017    4.7205    3.1722 C   0  0  0  0  0  0  0  0  0  0  0  0
   14.3159    5.9643    3.1153 O   0  0  0  0  0  0  0  0  0  0  0  0
   13.1211    5.9448    3.8998 C   0  0  0  0  0  0  0  0  0  0  0  0
   11.9462    6.5476    3.0991 C   0  0  2  0  0  0  0  0  0  0  0  0
   11.9647    5.9985    1.6767 C   0  0  0  0  0  0  0  0  0  0  0  0
   10.8849    5.2315    1.2134 C   0  0  0  0  0  0  0  0  0  0  0  0
   10.8824    4.7169   -0.0842 C   0  0  0  0  0  0  0  0  0  0  0  0
   11.9583    4.9609   -0.9344 C   0  0  0  0  0  0  0  0  0  0  0  0
   13.0379    5.7195   -0.4881 C   0  0  0  0  0  0  0  0  0  0  0  0
   13.0428    6.2350    0.8093 C   0  0  0  0  0  0  0  0  0  0  0  0
   11.9413    8.0976    3.1158 C   0  0  2  0  0  0  0  0  0  0  0  0
   11.0600    8.7228    4.2022 C   0  0  0  0  0  0  0  0  0  0  0  0
   10.6501   10.1026    3.6782 C   0  0  0  0  0  0  0  0  0  0  0  0
   11.1629   10.1954    2.2385 C   0  0  2  0  0  0  0  0  0  0  0  0
   10.2488   10.9219    1.2367 C   0  0  0  0  0  0  0  0  0  0  0  0
   10.5523   12.4232    0.9049 C   0  0  0  0  0  0  0  0  0  0  0  0
    9.5453   12.9364   -0.1446 C   0  0  0  0  0  0  0  0  0  0  0  0
   10.3115   13.2136    2.2162 C   0  0  0  0  0  0  0  0  0  0  0  0
   12.0161   12.6449    0.4089 C   0  0  1  0  0  0  0  0  0  0  0  0
   12.4457   11.7731   -0.7715 C   0  0  0  0  0  0  0  0  0  0  0  0
   12.2178   13.9983   -0.0017 O   0  0  0  0  0  0  0  0  0  0  0  0
   11.3680    8.7275    1.8420 C   0  0  0  0  0  0  0  0  0  0  0  0
  1  2  1  0
  2  3  1  0
  4  3  1  1
  4  5  1  0
  5  6  2  0
  6  7  1  0
  7  8  2  0
  8  9  1  0
  9 10  2  0
  4 11  1  0
 11 12  1  1
 12 13  1  0
 13 14  1  0
 14 15  1  6
 15 16  1  0
 16 17  1  0
 16 18  1  0
 16 19  1  0
 19 20  1  6
 19 21  1  0
 14 22  1  0
 10  5  1  0
 22 11  1  0
M  END
>  <CHROM.0>  (48) 
67.16539494,52.30369718,-73.04113267,65.46141892,71.58441445,65.35043348
-161.98587735

>  <CHROM.1>  (48) 
-133.62703726,44.32330984,117.48286771,-94.63207585,98.16070490,178.36201703
53.79032517,64.45233268,11.82881046,8.72756249,1.57440646,-0.21438686,-1.31839845
1.20373600

>  <Name>  (48) 
denovo_401

>  <RI>  (48) 
1.02415e+09

>  <Rbt.Current_Directory>  (48) 
/tmp/claude-0/-home-user-Rare-cancers/1af35c7f-7dc4-53ce-91d2-1631a2a10a85/scratchpad/smwork/cross/dock_metad-opened_v2

>  <Rbt.Executable>  (48) 
rbdock - v25.07-alpha

>  <Rbt.Library>  (48) 
libRbt.so (25.07, Buildalpha)

>  <Rbt.Parameter_File>  (48) 
/tmp/claude-0/-home-user-Rare-cancers/1af35c7f-7dc4-53ce-91d2-1631a2a10a85/scratchpad/rdroot/share/rDock/data/scripts/dock.prm

>  <Rbt.Receptor>  (48) 
rec.prm

>  <SCORE>  (48) 
-2.3561

>  <SCORE.INTER>  (48) 
4.00549

>  <SCORE.INTER.CONST>  (48) 
1

>  <SCORE.INTER.POLAR>  (48) 
0

>  <SCORE.INTER.REPUL>  (48) 
0

>  <SCORE.INTER.ROT>  (48) 
7

>  <SCORE.INTER.VDW>  (48) 
-8.39451

>  <SCORE.INTER.norm>  (48) 
0.182068

>  <SCORE.INTRA>  (48) 
7.22882

>  <SCORE.INTRA.DIHEDRAL>  (48) 
12.8855

>  <SCORE.INTRA.DIHEDRAL.0>  (48) 
3.78927

>  <SCORE.INTRA.POLAR>  (48) 
0

>  <SCORE.INTRA.POLAR.0>  (48) 
0

>  <SCORE.INTRA.REPUL>  (48) 
0

>  <SCORE.INTRA.REPUL.0>  (48) 
0

>  <SCORE.INTRA.VDW>  (48) 
0.786064

>  <SCORE.INTRA.VDW.0>  (48) 
1.02728

>  <SCORE.INTRA.norm>  (48) 
0.328583

>  <SCORE.RESTR>  (48) 
0.210761

>  <SCORE.RESTR.CAVITY>  (48) 
0.210761

>  <SCORE.RESTR.norm>  (48) 
0.00958002

>  <SCORE.SYSTEM>  (48) 
-13.8011

>  <SCORE.SYSTEM.CONST>  (48) 
0

>  <SCORE.SYSTEM.DIHEDRAL>  (48) 
3.971

>  <SCORE.SYSTEM.POLAR>  (48) 
-4.24837

>  <SCORE.SYSTEM.REPUL>  (48) 
0.436475

>  <SCORE.SYSTEM.VDW>  (48) 
-3.52456

>  <SCORE.SYSTEM.norm>  (48) 
-0.627325

>  <SCORE.heavy>  (48) 
22

>  <SCORE.norm>  (48) 
-0.107094

$$$$
denovo_401
     RDKit          3D

 22 23  0  0  0  0  0  0  0  0999 V2000
   11.8295    5.0898   -0.4783 C   0  0  0  0  0  0  0  0  0  0  0  0
   12.3205    6.2360    0.2040 O   0  0  0  0  0  0  0  0  0  0  0  0
   13.6887    6.4962   -0.1178 C   0  0  0  0  0  0  0  0  0  0  0  0
   14.4521    6.9710    1.1379 C   0  0  2  0  0  0  0  0  0  0  0  0
   13.7844    6.4019    2.3850 C   0  0  0  0  0  0  0  0  0  0  0  0
   12.5991    6.9799    2.8643 C   0  0  0  0  0  0  0  0  0  0  0  0
   11.9726    6.4765    4.0057 C   0  0  0  0  0  0  0  0  0  0  0  0
   12.5226    5.3907    4.6828 C   0  0  0  0  0  0  0  0  0  0  0  0
   13.6996    4.8073    4.2197 C   0  0  0  0  0  0  0  0  0  0  0  0
   14.3281    5.3092    3.0787 C   0  0  0  0  0  0  0  0  0  0  0  0
   14.5853    8.5136    1.2116 C   0  0  2  0  0  0  0  0  0  0  0  0
   15.0382    9.0522    2.5726 C   0  0  0  0  0  0  0  0  0  0  0  0
   14.4852   10.4771    2.6738 C   0  0  0  0  0  0  0  0  0  0  0  0
   13.5912   10.6889    1.4491 C   0  0  2  0  0  0  0  0  0  0  0  0
   12.3105   11.5106    1.6761 C   0  0  0  0  0  0  0  0  0  0  0  0
   11.8095   12.4433    0.5206 C   0  0  0  0  0  0  0  0  0  0  0  0
   12.9915   13.2659   -0.0316 C   0  0  0  0  0  0  0  0  0  0  0  0
   11.3180   11.5048   -0.6109 C   0  0  0  0  0  0  0  0  0  0  0  0
   10.6514   13.3887    0.9709 C   0  0  1  0  0  0  0  0  0  0  0  0
    9.3840   12.6847    1.4567 C   0  0  0  0  0  0  0  0  0  0  0  0
   11.0704   14.2371    2.0413 O   0  0  0  0  0  0  0  0  0  0  0  0
   13.2630    9.2587    1.0007 C   0  0  0  0  0  0  0  0  0  0  0  0
  1  2  1  0
  2  3  1  0
  4  3  1  6
  4  5  1  0
  5  6  2  0
  6  7  1  0
  7  8  2  0
  8  9  1  0
  9 10  2  0
  4 11  1  0
 11 12  1  1
 12 13  1  0
 13 14  1  0
 14 15  1  1
 15 16  1  0
 16 17  1  0
 16 18  1  0
 16 19  1  0
 19 20  1  1
 19 21  1  0
 14 22  1  0
 10  5  1  0
 22 11  1  0
M  END
>  <CHROM.0>  (49) 
69.55557297,-58.14315501,-67.21921620,-69.85068035,-166.62068478,69.41744490
-162.23914185

>  <CHROM.1>  (49) 
-141.37920257,27.18420986,-77.40284539,166.54997598,145.28190587,-46.93491583
-60.73865981,172.41832659,12.75266252,9.05528258,1.62607808,0.66325730,1.24785832
-2.45562609

>  <Name>  (49) 
denovo_401

>  <RI>  (49) 
1.02415e+09

>  <Rbt.Current_Directory>  (49) 
/tmp/claude-0/-home-user-Rare-cancers/1af35c7f-7dc4-53ce-91d2-1631a2a10a85/scratchpad/smwork/cross/dock_metad-opened_v2

>  <Rbt.Executable>  (49) 
rbdock - v25.07-alpha

>  <Rbt.Library>  (49) 
libRbt.so (25.07, Buildalpha)

>  <Rbt.Parameter_File>  (49) 
/tmp/claude-0/-home-user-Rare-cancers/1af35c7f-7dc4-53ce-91d2-1631a2a10a85/scratchpad/rdroot/share/rDock/data/scripts/dock.prm

>  <Rbt.Receptor>  (49) 
rec.prm

>  <SCORE>  (49) 
0.8467

>  <SCORE.INTER>  (49) 
1.02122

>  <SCORE.INTER.CONST>  (49) 
1

>  <SCORE.INTER.POLAR>  (49) 
-1.32826

>  <SCORE.INTER.REPUL>  (49) 
0

>  <SCORE.INTER.ROT>  (49) 
7

>  <SCORE.INTER.VDW>  (49) 
-6.8627

>  <SCORE.INTER.norm>  (49) 
0.0464193

>  <SCORE.INTRA>  (49) 
7.72754

>  <SCORE.INTRA.DIHEDRAL>  (49) 
10.8104

>  <SCORE.INTRA.DIHEDRAL.0>  (49) 
3.78927

>  <SCORE.INTRA.POLAR>  (49) 
0

>  <SCORE.INTRA.POLAR.0>  (49) 
0

>  <SCORE.INTRA.REPUL>  (49) 
0

>  <SCORE.INTRA.REPUL.0>  (49) 
0

>  <SCORE.INTRA.VDW>  (49) 
2.32236

>  <SCORE.INTRA.VDW.0>  (49) 
1.02728

>  <SCORE.INTRA.norm>  (49) 
0.351252

>  <SCORE.RESTR>  (49) 
1.10703

>  <SCORE.RESTR.CAVITY>  (49) 
1.10703

>  <SCORE.RESTR.norm>  (49) 
0.0503194

>  <SCORE.SYSTEM>  (49) 
-9.0091

>  <SCORE.SYSTEM.CONST>  (49) 
0

>  <SCORE.SYSTEM.DIHEDRAL>  (49) 
4.10108

>  <SCORE.SYSTEM.POLAR>  (49) 
-4.96665

>  <SCORE.SYSTEM.REPUL>  (49) 
0.360951

>  <SCORE.SYSTEM.VDW>  (49) 
4.02222

>  <SCORE.SYSTEM.norm>  (49) 
-0.409504

>  <SCORE.heavy>  (49) 
22

>  <SCORE.norm>  (49) 
0.0384862

$$$$
denovo_401
     RDKit          3D

 22 23  0  0  0  0  0  0  0  0999 V2000
   13.7772    5.4509    2.8584 C   0  0  0  0  0  0  0  0  0  0  0  0
   12.5091    5.9134    2.4129 O   0  0  0  0  0  0  0  0  0  0  0  0
   11.8039    6.6005    3.4492 C   0  0  0  0  0  0  0  0  0  0  0  0
   12.4565    7.9737    3.7200 C   0  0  2  0  0  0  0  0  0  0  0  0
   11.6630    8.7117    4.7928 C   0  0  0  0  0  0  0  0  0  0  0  0
   10.4851    9.3895    4.4435 C   0  0  0  0  0  0  0  0  0  0  0  0
    9.7447   10.0737    5.4091 C   0  0  0  0  0  0  0  0  0  0  0  0
   10.1720   10.0902    6.7347 C   0  0  0  0  0  0  0  0  0  0  0  0
   11.3401    9.4230    7.0962 C   0  0  0  0  0  0  0  0  0  0  0  0
   12.0823    8.7383    6.1323 C   0  0  0  0  0  0  0  0  0  0  0  0
   12.6153    8.8264    2.4353 C   0  0  2  0  0  0  0  0  0  0  0  0
   13.4640   10.0904    2.6075 C   0  0  0  0  0  0  0  0  0  0  0  0
   12.9767   11.0803    1.5447 C   0  0  0  0  0  0  0  0  0  0  0  0
   11.7539   10.4431    0.8793 C   0  0  2  0  0  0  0  0  0  0  0  0
   10.6080   11.3990    0.5053 C   0  0  0  0  0  0  0  0  0  0  0  0
   10.9455   12.6667   -0.3522 C   0  0  0  0  0  0  0  0  0  0  0  0
    9.6557   13.2178   -0.9934 C   0  0  0  0  0  0  0  0  0  0  0  0
   11.4720   13.7336    0.6413 C   0  0  0  0  0  0  0  0  0  0  0  0
   12.0200   12.3817   -1.4486 C   0  0  1  0  0  0  0  0  0  0  0  0
   11.5551   11.4964   -2.6053 C   0  0  0  0  0  0  0  0  0  0  0  0
   12.4832   13.5973   -2.0392 O   0  0  0  0  0  0  0  0  0  0  0  0
   11.2961    9.4005    1.9078 C   0  0  0  0  0  0  0  0  0  0  0  0
  1  2  1  0
  2  3  1  0
  4  3  1  6
  4  5  1  0
  5  6  2  0
  6  7  1  0
  7  8  2  0
  8  9  1  0
  9 10  2  0
  4 11  1  0
 11 12  1  1
 12 13  1  0
 13 14  1  0
 14 15  1  1
 15 16  1  0
 16 17  1  0
 16 18  1  0
 16 19  1  0
 19 20  1  6
 19 21  1  0
 14 22  1  0
 10  5  1  0
 22 11  1  0
M  END
>  <CHROM.0>  (50) 
67.38963634,-57.44393388,-73.14480134,-73.10710167,80.89899911,65.47876879
-161.58950652

>  <CHROM.1>  (50) 
71.93226181,178.04796195,-80.56493924,-170.23990896,52.46577932,161.59063892
70.06046207,68.76888013,11.70345004,10.05507841,2.16047095,-1.47188581,1.10112464
-0.99195591

>  <Name>  (50) 
denovo_401

>  <RI>  (50) 
1.02415e+09

>  <Rbt.Current_Directory>  (50) 
/tmp/claude-0/-home-user-Rare-cancers/1af35c7f-7dc4-53ce-91d2-1631a2a10a85/scratchpad/smwork/cross/dock_metad-opened_v2

>  <Rbt.Executable>  (50) 
rbdock - v25.07-alpha

>  <Rbt.Library>  (50) 
libRbt.so (25.07, Buildalpha)

>  <Rbt.Parameter_File>  (50) 
/tmp/claude-0/-home-user-Rare-cancers/1af35c7f-7dc4-53ce-91d2-1631a2a10a85/scratchpad/rdroot/share/rDock/data/scripts/dock.prm

>  <Rbt.Receptor>  (50) 
rec.prm

>  <SCORE>  (50) 
9.9910

>  <SCORE.INTER>  (50) 
14.1995

>  <SCORE.INTER.CONST>  (50) 
1

>  <SCORE.INTER.POLAR>  (50) 
-0.828378

>  <SCORE.INTER.REPUL>  (50) 
0.00516759

>  <SCORE.INTER.ROT>  (50) 
7

>  <SCORE.INTER.VDW>  (50) 
4.59019

>  <SCORE.INTER.norm>  (50) 
0.645434

>  <SCORE.INTRA>  (50) 
6.09142

>  <SCORE.INTRA.DIHEDRAL>  (50) 
1.0409

>  <SCORE.INTRA.DIHEDRAL.0>  (50) 
3.78927

>  <SCORE.INTRA.POLAR>  (50) 
0

>  <SCORE.INTRA.POLAR.0>  (50) 
0

>  <SCORE.INTRA.REPUL>  (50) 
0

>  <SCORE.INTRA.REPUL.0>  (50) 
0

>  <SCORE.INTRA.VDW>  (50) 
5.57096

>  <SCORE.INTRA.VDW.0>  (50) 
1.02728

>  <SCORE.INTRA.norm>  (50) 
0.276883

>  <SCORE.RESTR>  (50) 
0

>  <SCORE.RESTR.CAVITY>  (50) 
0

>  <SCORE.RESTR.norm>  (50) 
0

>  <SCORE.SYSTEM>  (50) 
-10.2999

>  <SCORE.SYSTEM.CONST>  (50) 
0

>  <SCORE.SYSTEM.DIHEDRAL>  (50) 
5.7068

>  <SCORE.SYSTEM.POLAR>  (50) 
-4.39079

>  <SCORE.SYSTEM.REPUL>  (50) 
0.654525

>  <SCORE.SYSTEM.VDW>  (50) 
-1.49726

>  <SCORE.SYSTEM.norm>  (50) 
-0.468179

>  <SCORE.heavy>  (50) 
22

>  <SCORE.norm>  (50) 
0.454137

$$$$
