denovo_401


 23 24  0  0  0  0  0  0  0  0999 V2000
   -3.8340   11.3653  -19.1497 C   0  0  0  0  0  0  0  0  0  0  0  0
   -4.8004   11.9164  -20.2043 C   0  0  0  0  0  0  0  0  0  0  0  0
   -6.2056   11.7641  -19.6083 C   0  0  0  0  0  0  0  0  0  0  0  0
   -6.0266   11.1660  -18.2097 C   0  0  0  0  0  0  0  0  0  0  0  0
   -4.5952   11.5823  -17.8404 C   0  0  0  0  0  0  0  0  0  0  0  0
   -2.3896   11.9274  -19.1667 C   0  0  0  0  0  0  0  0  0  0  0  0
   -2.2954   13.1285  -18.2256 C   0  0  0  0  0  0  0  0  0  0  0  0
   -2.0192   12.9980  -16.8571 C   0  0  0  0  0  0  0  0  0  0  0  0
   -1.9644   14.1219  -16.0287 C   0  0  0  0  0  0  0  0  0  0  0  0
   -2.1901   15.3917  -16.5538 C   0  0  0  0  0  0  0  0  0  0  0  0
   -2.4723   15.5398  -17.9087 C   0  0  0  0  0  0  0  0  0  0  0  0
   -2.5266   14.4175  -18.7374 C   0  0  0  0  0  0  0  0  0  0  0  0
   -1.2877   10.8583  -18.9539 C   0  0  0  0  0  0  0  0  0  0  0  0
   -0.1168   11.7376  -20.8442 C   0  0  0  0  0  0  0  0  0  0  0  0
   -0.5113   10.5790  -20.1248 O   0  0  0  0  0  0  0  0  0  0  0  0
   -7.0341   11.6276  -17.1467 C   0  0  0  0  0  0  0  0  0  0  0  0
   -8.5349   11.1848  -17.2377 C   0  0  0  0  0  0  0  0  0  0  0  0
   -9.1679   12.0697  -18.3421 C   0  0  0  0  0  0  0  0  0  0  0  0
   -8.6481    9.7213  -17.7090 C   0  0  0  0  0  0  0  0  0  0  0  0
   -9.2804   11.4070  -15.8830 C   0  0  0  0  0  0  0  0  0  0  0  0
   -9.1267   12.8013  -15.2748 C   0  0  0  0  0  0  0  0  0  0  0  0
  -10.6804   11.1775  -16.0492 O   0  0  0  0  0  0  0  0  0  0  0  0
  -11.0982   11.2407  -15.1734 H   0  0  0  0  0  0  0  0  0  0  0  0
 14 15  1  0  0  0
 15 13  1  0  0  0
 13  6  1  0  0  0
  6  7  1  0  0  0
  7  8  2  0  0  0
  8  9  1  0  0  0
  9 10  2  0  0  0
 10 11  1  0  0  0
 11 12  2  0  0  0
  6  1  1  0  0  0
  1  2  1  0  0  0
  2  3  1  0  0  0
  3  4  1  0  0  0
  4 16  1  0  0  0
 16 17  1  0  0  0
 17 18  1  0  0  0
 17 19  1  0  0  0
 17 20  1  0  0  0
 20 21  1  0  0  0
 20 22  1  0  0  0
  4  5  1  0  0  0
 12  7  1  0  0  0
  5  1  1  0  0  0
 22 23  1  0  0  0
M  END
> <minimizedAffinity>
-7.20681

$$$$
