denovo_401


 23 24  0  0  0  0  0  0  0  0999 V2000
   -5.4707   10.7795  -17.9429 C   0  0  0  0  0  0  0  0  0  0  0  0
   -4.6962    9.7660  -18.7932 C   0  0  0  0  0  0  0  0  0  0  0  0
   -3.2418   10.2533  -18.8084 C   0  0  0  0  0  0  0  0  0  0  0  0
   -3.1920   11.5132  -17.9390 C   0  0  0  0  0  0  0  0  0  0  0  0
   -4.3964   11.3310  -17.0036 C   0  0  0  0  0  0  0  0  0  0  0  0
   -6.7519   10.2639  -17.2392 C   0  0  0  0  0  0  0  0  0  0  0  0
   -7.8139   11.3636  -17.2371 C   0  0  0  0  0  0  0  0  0  0  0  0
   -8.3239   11.9255  -18.4162 C   0  0  0  0  0  0  0  0  0  0  0  0
   -9.2783   12.9449  -18.3674 C   0  0  0  0  0  0  0  0  0  0  0  0
   -9.7329   13.4217  -17.1406 C   0  0  0  0  0  0  0  0  0  0  0  0
   -9.2329   12.8805  -15.9598 C   0  0  0  0  0  0  0  0  0  0  0  0
   -8.2798   11.8613  -16.0075 C   0  0  0  0  0  0  0  0  0  0  0  0
   -7.2523    8.8904  -17.7542 C   0  0  0  0  0  0  0  0  0  0  0  0
   -8.4622    8.4512  -19.7694 C   0  0  0  0  0  0  0  0  0  0  0  0
   -8.5089    8.9463  -18.4396 O   0  0  0  0  0  0  0  0  0  0  0  0
   -1.8961   11.7315  -17.1446 C   0  0  0  0  0  0  0  0  0  0  0  0
   -0.8364   12.7766  -17.6360 C   0  0  0  0  0  0  0  0  0  0  0  0
   -0.0884   13.2475  -16.3624 C   0  0  0  0  0  0  0  0  0  0  0  0
    0.2072   12.1102  -18.5544 C   0  0  0  0  0  0  0  0  0  0  0  0
   -1.5171   13.9956  -18.3368 C   0  0  0  0  0  0  0  0  0  0  0  0
   -2.0947   15.0513  -17.3937 C   0  0  0  0  0  0  0  0  0  0  0  0
   -0.5795   14.6622  -19.1834 O   0  0  0  0  0  0  0  0  0  0  0  0
   -1.0568   15.3589  -19.6655 H   0  0  0  0  0  0  0  0  0  0  0  0
 14 15  1  0  0  0
 15 13  1  0  0  0
 13  6  1  0  0  0
  6  7  1  0  0  0
  7  8  2  0  0  0
  8  9  1  0  0  0
  9 10  2  0  0  0
 10 11  1  0  0  0
 11 12  2  0  0  0
  6  1  1  0  0  0
  1  2  1  0  0  0
  2  3  1  0  0  0
  3  4  1  0  0  0
  4 16  1  0  0  0
 16 17  1  0  0  0
 17 18  1  0  0  0
 17 19  1  0  0  0
 17 20  1  0  0  0
 20 21  1  0  0  0
 20 22  1  0  0  0
  4  5  1  0  0  0
 12  7  1  0  0  0
  5  1  1  0  0  0
 22 23  1  0  0  0
M  END
> <minimizedAffinity>
-7.25872

$$$$
