denovo_401


 23 24  0  0  0  0  0  0  0  0999 V2000
   -4.4096   11.5840  -18.2394 C   0  0  0  0  0  0  0  0  0  0  0  0
   -4.2807   10.2586  -17.4800 C   0  0  0  0  0  0  0  0  0  0  0  0
   -5.7061    9.7067  -17.3514 C   0  0  0  0  0  0  0  0  0  0  0  0
   -6.6270   10.6982  -18.0689 C   0  0  0  0  0  0  0  0  0  0  0  0
   -5.6811   11.3832  -19.0662 C   0  0  0  0  0  0  0  0  0  0  0  0
   -3.1708   12.0471  -19.0478 C   0  0  0  0  0  0  0  0  0  0  0  0
   -2.5812   13.3042  -18.4080 C   0  0  0  0  0  0  0  0  0  0  0  0
   -1.6215   14.1007  -19.0488 C   0  0  0  0  0  0  0  0  0  0  0  0
   -1.0928   15.2296  -18.4175 C   0  0  0  0  0  0  0  0  0  0  0  0
   -1.5107   15.5761  -17.1352 C   0  0  0  0  0  0  0  0  0  0  0  0
   -2.4575   14.7933  -16.4810 C   0  0  0  0  0  0  0  0  0  0  0  0
   -2.9870   13.6655  -17.1113 C   0  0  0  0  0  0  0  0  0  0  0  0
   -2.1381   10.9259  -19.3284 C   0  0  0  0  0  0  0  0  0  0  0  0
   -2.7730   11.3629  -21.5918 C   0  0  0  0  0  0  0  0  0  0  0  0
   -2.1046   10.4909  -20.6928 O   0  0  0  0  0  0  0  0  0  0  0  0
   -7.8446   10.0911  -18.7809 C   0  0  0  0  0  0  0  0  0  0  0  0
   -9.2767   10.6780  -18.5330 C   0  0  0  0  0  0  0  0  0  0  0  0
   -9.3163   12.0265  -19.2967 C   0  0  0  0  0  0  0  0  0  0  0  0
  -10.3570    9.7720  -19.1564 C   0  0  0  0  0  0  0  0  0  0  0  0
   -9.5416   10.9178  -17.0122 C   0  0  0  0  0  0  0  0  0  0  0  0
   -9.4075   12.3681  -16.5474 C   0  0  0  0  0  0  0  0  0  0  0  0
  -10.8611   10.4913  -16.6701 O   0  0  0  0  0  0  0  0  0  0  0  0
  -10.9604   10.5754  -15.7064 H   0  0  0  0  0  0  0  0  0  0  0  0
 14 15  1  0  0  0
 15 13  1  0  0  0
 13  6  1  0  0  0
  6  7  1  0  0  0
  7  8  2  0  0  0
  8  9  1  0  0  0
  9 10  2  0  0  0
 10 11  1  0  0  0
 11 12  2  0  0  0
  6  1  1  0  0  0
  1  2  1  0  0  0
  2  3  1  0  0  0
  3  4  1  0  0  0
  4 16  1  0  0  0
 16 17  1  0  0  0
 17 18  1  0  0  0
 17 19  1  0  0  0
 17 20  1  0  0  0
 20 21  1  0  0  0
 20 22  1  0  0  0
  4  5  1  0  0  0
 12  7  1  0  0  0
  5  1  1  0  0  0
 22 23  1  0  0  0
M  END
> <minimizedAffinity>
-6.60602

$$$$
