denovo_401


 23 24  0  0  0  0  0  0  0  0999 V2000
   -8.7144   11.8875  -16.4535 C   0  0  0  0  0  0  0  0  0  0  0  0
   -8.7640   12.6877  -17.7601 C   0  0  0  0  0  0  0  0  0  0  0  0
   -7.7951   11.9864  -18.7204 C   0  0  0  0  0  0  0  0  0  0  0  0
   -7.2330   10.7754  -17.9698 C   0  0  0  0  0  0  0  0  0  0  0  0
   -8.3203   10.4862  -16.9244 C   0  0  0  0  0  0  0  0  0  0  0  0
   -9.9752   11.9439  -15.5536 C   0  0  0  0  0  0  0  0  0  0  0  0
   -9.6134   11.5026  -14.1353 C   0  0  0  0  0  0  0  0  0  0  0  0
   -8.5468   12.0623  -13.4174 C   0  0  0  0  0  0  0  0  0  0  0  0
   -8.2373   11.6129  -12.1311 C   0  0  0  0  0  0  0  0  0  0  0  0
   -8.9848   10.5945  -11.5453 C   0  0  0  0  0  0  0  0  0  0  0  0
  -10.0429   10.0225  -12.2456 C   0  0  0  0  0  0  0  0  0  0  0  0
  -10.3535   10.4713  -13.5307 C   0  0  0  0  0  0  0  0  0  0  0  0
  -10.7524   13.2827  -15.6298 C   0  0  0  0  0  0  0  0  0  0  0  0
  -12.9049   14.2926  -15.3759 C   0  0  0  0  0  0  0  0  0  0  0  0
  -12.1731   13.1283  -15.7286 O   0  0  0  0  0  0  0  0  0  0  0  0
   -6.9349    9.5340  -18.8233 C   0  0  0  0  0  0  0  0  0  0  0  0
   -5.4990    8.9056  -18.8265 C   0  0  0  0  0  0  0  0  0  0  0  0
   -4.6609    9.7673  -17.8474 C   0  0  0  0  0  0  0  0  0  0  0  0
   -5.5256    7.4721  -18.2599 C   0  0  0  0  0  0  0  0  0  0  0  0
   -4.8607    8.9438  -20.2518 C   0  0  0  0  0  0  0  0  0  0  0  0
   -5.1093   10.2277  -21.0438 C   0  0  0  0  0  0  0  0  0  0  0  0
   -3.4449    8.7784  -20.1607 O   0  0  0  0  0  0  0  0  0  0  0  0
   -3.0932    8.7218  -21.0655 H   0  0  0  0  0  0  0  0  0  0  0  0
 14 15  1  0  0  0
 15 13  1  0  0  0
 13  6  1  0  0  0
  6  7  1  0  0  0
  7  8  2  0  0  0
  8  9  1  0  0  0
  9 10  2  0  0  0
 10 11  1  0  0  0
 11 12  2  0  0  0
  6  1  1  0  0  0
  1  2  1  0  0  0
  2  3  1  0  0  0
  3  4  1  0  0  0
  4 16  1  0  0  0
 16 17  1  0  0  0
 17 18  1  0  0  0
 17 19  1  0  0  0
 17 20  1  0  0  0
 20 21  1  0  0  0
 20 22  1  0  0  0
  4  5  1  0  0  0
 12  7  1  0  0  0
  5  1  1  0  0  0
 22 23  1  0  0  0
M  END
> <minimizedAffinity>
-6.86066

$$$$
